MODEL        2
REMARK  Name = 10466307
REMARK  6 active torsions:
REMARK  status: ('A' for Active; 'I' for Inactive)
REMARK    1  A    between atoms: O_2  and  C_9
REMARK    2  A    between atoms: O_3  and  C_11
REMARK    3  A    between atoms: O_4  and  C_15
REMARK    4  A    between atoms: O_4  and  C_16
REMARK    5  A    between atoms: C_8  and  C_13
REMARK    6  A    between atoms: C_12  and  C_15
REMARK                            x       y       z     vdW  Elec       q    Type
REMARK                         _______ _______ _______ _____ _____    ______ ____
ROOT
ATOM      1  O   UNL     1       8.075   6.193  94.047  0.00  0.00    +0.000 OA
ATOM      2  C   UNL     1       9.700   8.037  93.707  0.00  0.00    +0.000 C 
ATOM      3  C   UNL     1       8.767   9.034  94.439  0.00  0.00    +0.000 C 
ATOM      4  C   UNL     1      10.741   7.660  94.776  0.00  0.00    +0.000 C 
ATOM      5  C   UNL     1      11.019   9.010  95.441  0.00  0.00    +0.000 C 
ATOM      6  C   UNL     1       9.636   9.651  95.563  0.00  0.00    +0.000 C 
ATOM      7  C   UNL     1       8.935   6.852  93.108  0.00  0.00    +0.000 C 
ATOM      8  C   UNL     1       7.545   8.347  94.979  0.00  0.00    +0.000 C 
ATOM      9  C   UNL     1      11.984   6.992  94.201  0.00  0.00    +0.000 C 
ATOM     10  C   UNL     1       7.303   7.045  94.793  0.00  0.00    +0.000 C 
ENDROOT
BRANCH   5  11
ATOM     11  O   UNL     1      11.849   9.821  94.617  0.00  0.00    +0.000 OA
ATOM     12  H   UNL     1      12.011   9.330  93.793  0.00  0.00    +0.000 HD
ENDBRANCH   5  11
BRANCH   7  13
ATOM     13  O   UNL     1       8.196   7.318  91.975  0.00  0.00    +0.000 OA
ATOM     14  H   UNL     1       8.802   7.763  91.361  0.00  0.00    +0.000 HD
ENDBRANCH   7  13
BRANCH   8  16
ATOM     15  O   UNL     1       6.498  10.326  95.756  0.00  0.00    +0.000 OA
ATOM     16  C   UNL     1       6.564   9.107  95.756  0.00  0.00    +0.000 C 
BRANCH  16  17
ATOM     17  O   UNL     1       5.780   8.234  96.438  0.00  0.00    +0.000 OA
ATOM     18  C   UNL     1       4.520   8.755  96.878  0.00  0.00    +0.000 C 
ENDBRANCH  16  17
ENDBRANCH   8  16
TORSDOF 4
ENDMDL
