MODEL        2
REMARK  Name = 10466307
REMARK  6 active torsions:
REMARK  status: ('A' for Active; 'I' for Inactive)
REMARK    1  A    between atoms: O_2  and  C_9
REMARK    2  A    between atoms: O_3  and  C_11
REMARK    3  A    between atoms: O_4  and  C_15
REMARK    4  A    between atoms: O_4  and  C_16
REMARK    5  A    between atoms: C_8  and  C_13
REMARK    6  A    between atoms: C_12  and  C_15
REMARK                            x       y       z     vdW  Elec       q    Type
REMARK                         _______ _______ _______ _____ _____    ______ ____
ROOT
ATOM      1  O   UNL     1      22.601  -2.855   6.443  0.00  0.00    +0.000 OA
ATOM      2  C   UNL     1      22.053  -1.985   8.701  0.00  0.00    +0.000 C 
ATOM      3  C   UNL     1      20.912  -1.112   8.121  0.00  0.00    +0.000 C 
ATOM      4  C   UNL     1      21.318  -3.210   9.275  0.00  0.00    +0.000 C 
ATOM      5  C   UNL     1      20.094  -2.569   9.933  0.00  0.00    +0.000 C 
ATOM      6  C   UNL     1      19.650  -1.507   8.926  0.00  0.00    +0.000 C 
ATOM      7  C   UNL     1      23.129  -2.311   7.659  0.00  0.00    +0.000 C 
ATOM      8  C   UNL     1      20.739  -1.343   6.646  0.00  0.00    +0.000 C 
ATOM      9  C   UNL     1      22.170  -4.032  10.233  0.00  0.00    +0.000 C 
ATOM     10  C   UNL     1      21.520  -2.173   5.945  0.00  0.00    +0.000 C 
ENDROOT
BRANCH   5  11
ATOM     11  O   UNL     1      20.449  -1.942  11.162  0.00  0.00    +0.000 OA
ATOM     12  H   UNL     1      20.402  -2.619  11.859  0.00  0.00    +0.000 HD
ENDBRANCH   5  11
BRANCH   7  13
ATOM     13  O   UNL     1      23.883  -1.122   7.403  0.00  0.00    +0.000 OA
ATOM     14  H   UNL     1      24.603  -1.328   6.786  0.00  0.00    +0.000 HD
ENDBRANCH   7  13
BRANCH   8  16
ATOM     15  O   UNL     1      18.512  -1.034   5.899  0.00  0.00    +0.000 OA
ATOM     16  C   UNL     1      19.672  -0.654   5.919  0.00  0.00    +0.000 C 
BRANCH  16  17
ATOM     17  O   UNL     1      20.198   0.436   5.304  0.00  0.00    +0.000 OA
ATOM     18  C   UNL     1      20.960   0.166   4.122  0.00  0.00    +0.000 C 
ENDBRANCH  16  17
ENDBRANCH   8  16
TORSDOF 4
ENDMDL
