MODEL        2
REMARK  Name = 10466307
REMARK  6 active torsions:
REMARK  status: ('A' for Active; 'I' for Inactive)
REMARK    1  A    between atoms: O_2  and  C_9
REMARK    2  A    between atoms: O_3  and  C_11
REMARK    3  A    between atoms: O_4  and  C_15
REMARK    4  A    between atoms: O_4  and  C_16
REMARK    5  A    between atoms: C_8  and  C_13
REMARK    6  A    between atoms: C_12  and  C_15
REMARK                            x       y       z     vdW  Elec       q    Type
REMARK                         _______ _______ _______ _____ _____    ______ ____
ROOT
ATOM      1  O   UNL     1      33.608 -12.074  -8.023  0.00  0.00    +0.000 OA
ATOM      2  C   UNL     1      35.664 -12.013  -9.411  0.00  0.00    +0.000 C 
ATOM      3  C   UNL     1      36.550 -12.245  -8.162  0.00  0.00    +0.000 C 
ATOM      4  C   UNL     1      35.576 -13.408 -10.059  0.00  0.00    +0.000 C 
ATOM      5  C   UNL     1      37.011 -13.919  -9.912  0.00  0.00    +0.000 C 
ATOM      6  C   UNL     1      37.412 -13.487  -8.501  0.00  0.00    +0.000 C 
ATOM      7  C   UNL     1      34.313 -11.380  -9.062  0.00  0.00    +0.000 C 
ATOM      8  C   UNL     1      35.718 -12.452  -6.929  0.00  0.00    +0.000 C 
ATOM      9  C   UNL     1      35.080 -13.375 -11.499  0.00  0.00    +0.000 C 
ATOM     10  C   UNL     1      34.381 -12.392  -6.937  0.00  0.00    +0.000 C 
ENDROOT
BRANCH   5  11
ATOM     11  O   UNL     1      37.871 -13.300 -10.863  0.00  0.00    +0.000 OA
ATOM     12  H   UNL     1      38.138 -13.983 -11.502  0.00  0.00    +0.000 HD
ENDBRANCH   5  11
BRANCH   7  13
ATOM     13  O   UNL     1      34.535 -10.012  -8.705  0.00  0.00    +0.000 OA
ATOM     14  H   UNL     1      33.979  -9.444  -9.263  0.00  0.00    +0.000 HD
ENDBRANCH   7  13
BRANCH   8  16
ATOM     15  O   UNL     1      35.777 -13.194  -4.679  0.00  0.00    +0.000 OA
ATOM     16  C   UNL     1      36.367 -12.745  -5.649  0.00  0.00    +0.000 C 
BRANCH  16  17
ATOM     17  O   UNL     1      37.685 -12.437  -5.750  0.00  0.00    +0.000 OA
ATOM     18  C   UNL     1      38.076 -11.206  -5.131  0.00  0.00    +0.000 C 
ENDBRANCH  16  17
ENDBRANCH   8  16
TORSDOF 4
ENDMDL
