MODEL        2
REMARK  Name = 10466307
REMARK  6 active torsions:
REMARK  status: ('A' for Active; 'I' for Inactive)
REMARK    1  A    between atoms: O_2  and  C_9
REMARK    2  A    between atoms: O_3  and  C_11
REMARK    3  A    between atoms: O_4  and  C_15
REMARK    4  A    between atoms: O_4  and  C_16
REMARK    5  A    between atoms: C_8  and  C_13
REMARK    6  A    between atoms: C_12  and  C_15
REMARK                            x       y       z     vdW  Elec       q    Type
REMARK                         _______ _______ _______ _____ _____    ______ ____
ROOT
ATOM      1  O   UNL     1      31.174  84.570  27.420  0.00  0.00    +0.000 OA
ATOM      2  C   UNL     1      29.625  84.348  25.494  0.00  0.00    +0.000 C 
ATOM      3  C   UNL     1      29.327  82.874  25.866  0.00  0.00    +0.000 C 
ATOM      4  C   UNL     1      28.413  85.117  26.051  0.00  0.00    +0.000 C 
ATOM      5  C   UNL     1      27.251  84.191  25.683  0.00  0.00    +0.000 C 
ATOM      6  C   UNL     1      27.785  82.792  25.990  0.00  0.00    +0.000 C 
ATOM      7  C   UNL     1      30.984  84.821  26.022  0.00  0.00    +0.000 C 
ATOM      8  C   UNL     1      30.020  82.478  27.139  0.00  0.00    +0.000 C 
ATOM      9  C   UNL     1      28.278  86.525  25.487  0.00  0.00    +0.000 C 
ATOM     10  C   UNL     1      30.823  83.306  27.816  0.00  0.00    +0.000 C 
ENDROOT
BRANCH   5  11
ATOM     11  O   UNL     1      26.944  84.290  24.296  0.00  0.00    +0.000 OA
ATOM     12  H   UNL     1      26.541  83.446  24.026  0.00  0.00    +0.000 HD
ENDBRANCH   5  11
BRANCH   7  13
ATOM     13  O   UNL     1      32.012  84.197  25.245  0.00  0.00    +0.000 OA
ATOM     14  H   UNL     1      32.581  84.883  24.861  0.00  0.00    +0.000 HD
ENDBRANCH   7  13
BRANCH   8  16
ATOM     15  O   UNL     1      30.243  80.119  27.170  0.00  0.00    +0.000 OA
ATOM     16  C   UNL     1      29.819  81.138  27.693  0.00  0.00    +0.000 C 
BRANCH  16  17
ATOM     17  O   UNL     1      29.109  81.245  28.845  0.00  0.00    +0.000 OA
ATOM     18  C   UNL     1      29.883  81.204  30.049  0.00  0.00    +0.000 C 
ENDBRANCH  16  17
ENDBRANCH   8  16
TORSDOF 4
ENDMDL
