MODEL        2
REMARK  Name = 10466307
REMARK  6 active torsions:
REMARK  status: ('A' for Active; 'I' for Inactive)
REMARK    1  A    between atoms: O_2  and  C_9
REMARK    2  A    between atoms: O_3  and  C_11
REMARK    3  A    between atoms: O_4  and  C_15
REMARK    4  A    between atoms: O_4  and  C_16
REMARK    5  A    between atoms: C_8  and  C_13
REMARK    6  A    between atoms: C_12  and  C_15
REMARK                            x       y       z     vdW  Elec       q    Type
REMARK                         _______ _______ _______ _____ _____    ______ ____
ROOT
ATOM      1  O   UNL     1     -11.344 -16.401   7.813  0.00  0.00    +0.000 OA
ATOM      2  C   UNL     1     -10.150 -18.342   6.831  0.00  0.00    +0.000 C 
ATOM      3  C   UNL     1     -10.274 -19.129   8.160  0.00  0.00    +0.000 C 
ATOM      4  C   UNL     1     -11.278 -18.921   5.959  0.00  0.00    +0.000 C 
ATOM      5  C   UNL     1     -11.184 -20.417   6.266  0.00  0.00    +0.000 C 
ATOM      6  C   UNL     1     -10.951 -20.467   7.777  0.00  0.00    +0.000 C 
ATOM      7  C   UNL     1     -10.213 -16.825   7.041  0.00  0.00    +0.000 C 
ATOM      8  C   UNL     1     -11.069 -18.363   9.180  0.00  0.00    +0.000 C 
ATOM      9  C   UNL     1     -11.130 -18.588   4.480  0.00  0.00    +0.000 C 
ATOM     10  C   UNL     1     -11.555 -17.138   8.950  0.00  0.00    +0.000 C 
ENDROOT
BRANCH   5  11
ATOM     11  O   UNL     1     -10.075 -21.005   5.594  0.00  0.00    +0.000 OA
ATOM     12  H   UNL     1      -9.449 -20.290   5.384  0.00  0.00    +0.000 HD
ENDBRANCH   5  11
BRANCH   7  13
ATOM     13  O   UNL     1      -8.989 -16.402   7.650  0.00  0.00    +0.000 OA
ATOM     14  H   UNL     1      -8.829 -16.934   8.446  0.00  0.00    +0.000 HD
ENDBRANCH   7  13
BRANCH   8  16
ATOM     15  O   UNL     1     -11.090 -18.416  11.549  0.00  0.00    +0.000 OA
ATOM     16  C   UNL     1     -11.349 -18.960  10.487  0.00  0.00    +0.000 C 
BRANCH  16  17
ATOM     17  O   UNL     1     -11.926 -20.174  10.296  0.00  0.00    +0.000 OA
ATOM     18  C   UNL     1     -11.452 -21.219  11.152  0.00  0.00    +0.000 C 
ENDBRANCH  16  17
ENDBRANCH   8  16
TORSDOF 4
ENDMDL
