MODEL        2
REMARK  Name = 10466307
REMARK  6 active torsions:
REMARK  status: ('A' for Active; 'I' for Inactive)
REMARK    1  A    between atoms: O_2  and  C_9
REMARK    2  A    between atoms: O_3  and  C_11
REMARK    3  A    between atoms: O_4  and  C_15
REMARK    4  A    between atoms: O_4  and  C_16
REMARK    5  A    between atoms: C_8  and  C_13
REMARK    6  A    between atoms: C_12  and  C_15
REMARK                            x       y       z     vdW  Elec       q    Type
REMARK                         _______ _______ _______ _____ _____    ______ ____
ROOT
ATOM      1  O   UNL     1     -31.545-110.012 196.603  0.00  0.00    +0.000 OA
ATOM      2  C   UNL     1     -32.890-108.463 195.207  0.00  0.00    +0.000 C 
ATOM      3  C   UNL     1     -32.371-109.133 193.910  0.00  0.00    +0.000 C 
ATOM      4  C   UNL     1     -34.284-109.086 195.406  0.00  0.00    +0.000 C 
ATOM      5  C   UNL     1     -34.835-109.098 193.978  0.00  0.00    +0.000 C 
ATOM      6  C   UNL     1     -33.643-109.544 193.129  0.00  0.00    +0.000 C 
ATOM      7  C   UNL     1     -31.929-108.648 196.387  0.00  0.00    +0.000 C 
ATOM      8  C   UNL     1     -31.489-110.310 194.216  0.00  0.00    +0.000 C 
ATOM      9  C   UNL     1     -35.154-108.318 196.393  0.00  0.00    +0.000 C 
ATOM     10  C   UNL     1     -31.175-110.678 195.463  0.00  0.00    +0.000 C 
ENDROOT
BRANCH   5  11
ATOM     11  O   UNL     1     -35.243-107.794 193.580  0.00  0.00    +0.000 OA
ATOM     12  H   UNL     1     -34.449-107.322 193.272  0.00  0.00    +0.000 HD
ENDBRANCH   5  11
BRANCH   7  13
ATOM     13  O   UNL     1     -30.782-107.821 196.168  0.00  0.00    +0.000 OA
ATOM     14  H   UNL     1     -30.462-107.489 197.022  0.00  0.00    +0.000 HD
ENDBRANCH   7  13
BRANCH   8  16
ATOM     15  O   UNL     1     -30.481-112.237 193.274  0.00  0.00    +0.000 OA
ATOM     16  C   UNL     1     -30.941-111.116 193.123  0.00  0.00    +0.000 C 
BRANCH  16  17
ATOM     17  O   UNL     1     -31.043-110.410 191.968  0.00  0.00    +0.000 OA
ATOM     18  C   UNL     1     -30.069-109.374 191.796  0.00  0.00    +0.000 C 
ENDBRANCH  16  17
ENDBRANCH   8  16
TORSDOF 4
ENDMDL
