MODEL        2
REMARK  Name = 10466307
REMARK  6 active torsions:
REMARK  status: ('A' for Active; 'I' for Inactive)
REMARK    1  A    between atoms: O_2  and  C_9
REMARK    2  A    between atoms: O_3  and  C_11
REMARK    3  A    between atoms: O_4  and  C_15
REMARK    4  A    between atoms: O_4  and  C_16
REMARK    5  A    between atoms: C_8  and  C_13
REMARK    6  A    between atoms: C_12  and  C_15
REMARK                            x       y       z     vdW  Elec       q    Type
REMARK                         _______ _______ _______ _____ _____    ______ ____
ROOT
ATOM      1  O   UNL     1      13.327  39.718  69.504  0.00  0.00    +0.000 OA
ATOM      2  C   UNL     1      14.695  41.658  70.228  0.00  0.00    +0.000 C 
ATOM      3  C   UNL     1      14.319  42.440  68.944  0.00  0.00    +0.000 C 
ATOM      4  C   UNL     1      13.758  42.246  71.299  0.00  0.00    +0.000 C 
ATOM      5  C   UNL     1      13.796  43.740  70.972  0.00  0.00    +0.000 C 
ATOM      6  C   UNL     1      13.733  43.783  69.445  0.00  0.00    +0.000 C 
ATOM      7  C   UNL     1      14.587  40.141  70.042  0.00  0.00    +0.000 C 
ATOM      8  C   UNL     1      13.340  41.673  68.101  0.00  0.00    +0.000 C 
ATOM      9  C   UNL     1      14.188  41.918  72.723  0.00  0.00    +0.000 C 
ATOM     10  C   UNL     1      12.903  40.451  68.426  0.00  0.00    +0.000 C 
ENDROOT
BRANCH   5  11
ATOM     11  O   UNL     1      15.016  44.326  71.415  0.00  0.00    +0.000 OA
ATOM     12  H   UNL     1      15.439  44.739  70.642  0.00  0.00    +0.000 HD
ENDBRANCH   5  11
BRANCH   7  13
ATOM     13  O   UNL     1      15.669  39.710  69.210  0.00  0.00    +0.000 OA
ATOM     14  H   UNL     1      16.509  39.975  69.618  0.00  0.00    +0.000 HD
ENDBRANCH   7  13
BRANCH   8  16
ATOM     15  O   UNL     1      13.373  43.164  66.260  0.00  0.00    +0.000 OA
ATOM     16  C   UNL     1      12.814  42.266  66.870  0.00  0.00    +0.000 C 
BRANCH  16  17
ATOM     17  O   UNL     1      11.645  41.653  66.556  0.00  0.00    +0.000 OA
ATOM     18  C   UNL     1      10.497  42.111  67.279  0.00  0.00    +0.000 C 
ENDBRANCH  16  17
ENDBRANCH   8  16
TORSDOF 4
ENDMDL
