MODEL        2
REMARK  Name = 10466307
REMARK  6 active torsions:
REMARK  status: ('A' for Active; 'I' for Inactive)
REMARK    1  A    between atoms: O_2  and  C_9
REMARK    2  A    between atoms: O_3  and  C_11
REMARK    3  A    between atoms: O_4  and  C_15
REMARK    4  A    between atoms: O_4  and  C_16
REMARK    5  A    between atoms: C_8  and  C_13
REMARK    6  A    between atoms: C_12  and  C_15
REMARK                            x       y       z     vdW  Elec       q    Type
REMARK                         _______ _______ _______ _____ _____    ______ ____
ROOT
ATOM      1  O   UNL     1      18.550  36.770  13.256  0.00  0.00    +0.000 OA
ATOM      2  C   UNL     1      19.793  35.546  11.491  0.00  0.00    +0.000 C 
ATOM      3  C   UNL     1      21.084  35.563  12.347  0.00  0.00    +0.000 C 
ATOM      4  C   UNL     1      19.226  34.132  11.714  0.00  0.00    +0.000 C 
ATOM      5  C   UNL     1      20.490  33.270  11.663  0.00  0.00    +0.000 C 
ATOM      6  C   UNL     1      21.519  34.081  12.453  0.00  0.00    +0.000 C 
ATOM      7  C   UNL     1      18.835  36.687  11.853  0.00  0.00    +0.000 C 
ATOM      8  C   UNL     1      20.842  36.181  13.694  0.00  0.00    +0.000 C 
ATOM      9  C   UNL     1      18.171  33.735  10.690  0.00  0.00    +0.000 C 
ATOM     10  C   UNL     1      19.657  36.685  14.059  0.00  0.00    +0.000 C 
ENDROOT
BRANCH   5  11
ATOM     11  O   UNL     1      20.940  33.107  10.322  0.00  0.00    +0.000 OA
ATOM     12  H   UNL     1      20.336  32.481   9.886  0.00  0.00    +0.000 HD
ENDBRANCH   5  11
BRANCH   7  13
ATOM     13  O   UNL     1      19.392  37.914  11.370  0.00  0.00    +0.000 OA
ATOM     14  H   UNL     1      18.735  38.622  11.470  0.00  0.00    +0.000 HD
ENDBRANCH   7  13
BRANCH   8  16
ATOM     15  O   UNL     1      22.109  35.389  15.534  0.00  0.00    +0.000 OA
ATOM     16  C   UNL     1      21.926  36.240  14.677  0.00  0.00    +0.000 C 
BRANCH  16  17
ATOM     17  O   UNL     1      22.651  37.366  14.457  0.00  0.00    +0.000 OA
ATOM     18  C   UNL     1      23.827  37.193  13.658  0.00  0.00    +0.000 C 
ENDBRANCH  16  17
ENDBRANCH   8  16
TORSDOF 4
ENDMDL
