MODEL        2
REMARK  Name = 10466307
REMARK  6 active torsions:
REMARK  status: ('A' for Active; 'I' for Inactive)
REMARK    1  A    between atoms: O_2  and  C_9
REMARK    2  A    between atoms: O_3  and  C_11
REMARK    3  A    between atoms: O_4  and  C_15
REMARK    4  A    between atoms: O_4  and  C_16
REMARK    5  A    between atoms: C_8  and  C_13
REMARK    6  A    between atoms: C_12  and  C_15
REMARK                            x       y       z     vdW  Elec       q    Type
REMARK                         _______ _______ _______ _____ _____    ______ ____
ROOT
ATOM      1  O   UNL     1      16.912   9.752  11.690  0.00  0.00    +0.000 OA
ATOM      2  C   UNL     1      14.513  10.345  11.473  0.00  0.00    +0.000 C 
ATOM      3  C   UNL     1      14.257   9.979  12.956  0.00  0.00    +0.000 C 
ATOM      4  C   UNL     1      14.627  11.880  11.490  0.00  0.00    +0.000 C 
ATOM      5  C   UNL     1      13.505  12.273  12.454  0.00  0.00    +0.000 C 
ATOM      6  C   UNL     1      13.609  11.241  13.578  0.00  0.00    +0.000 C 
ATOM      7  C   UNL     1      15.730   9.617  10.891  0.00  0.00    +0.000 C 
ATOM      8  C   UNL     1      15.530   9.593  13.654  0.00  0.00    +0.000 C 
ATOM      9  C   UNL     1      14.499  12.512  10.110  0.00  0.00    +0.000 C 
ATOM     10  C   UNL     1      16.712   9.538  13.029  0.00  0.00    +0.000 C 
ENDROOT
BRANCH   5  11
ATOM     11  O   UNL     1      12.233  12.164  11.824  0.00  0.00    +0.000 OA
ATOM     12  H   UNL     1      12.019  13.035  11.446  0.00  0.00    +0.000 HD
ENDBRANCH   5  11
BRANCH   7  13
ATOM     13  O   UNL     1      15.387   8.238  10.712  0.00  0.00    +0.000 OA
ATOM     14  H   UNL     1      15.578   7.754  11.531  0.00  0.00    +0.000 HD
ENDBRANCH   7  13
BRANCH   8  16
ATOM     15  O   UNL     1      16.426   9.526  15.847  0.00  0.00    +0.000 OA
ATOM     16  C   UNL     1      15.511   9.266  15.081  0.00  0.00    +0.000 C 
BRANCH  16  17
ATOM     17  O   UNL     1      14.336   8.651  15.371  0.00  0.00    +0.000 OA
ATOM     18  C   UNL     1      14.453   7.345  15.946  0.00  0.00    +0.000 C 
ENDBRANCH  16  17
ENDBRANCH   8  16
TORSDOF 4
ENDMDL
