MODEL        2
REMARK  Name = 10466307
REMARK  6 active torsions:
REMARK  status: ('A' for Active; 'I' for Inactive)
REMARK    1  A    between atoms: O_2  and  C_9
REMARK    2  A    between atoms: O_3  and  C_11
REMARK    3  A    between atoms: O_4  and  C_15
REMARK    4  A    between atoms: O_4  and  C_16
REMARK    5  A    between atoms: C_8  and  C_13
REMARK    6  A    between atoms: C_12  and  C_15
REMARK                            x       y       z     vdW  Elec       q    Type
REMARK                         _______ _______ _______ _____ _____    ______ ____
ROOT
ATOM      1  O   UNL     1     -40.850  32.668   6.883  0.00  0.00    +0.000 OA
ATOM      2  C   UNL     1     -40.718  32.136   4.463  0.00  0.00    +0.000 C 
ATOM      3  C   UNL     1     -39.682  31.017   4.735  0.00  0.00    +0.000 C 
ATOM      4  C   UNL     1     -42.044  31.372   4.297  0.00  0.00    +0.000 C 
ATOM      5  C   UNL     1     -41.613  30.162   3.464  0.00  0.00    +0.000 C 
ATOM      6  C   UNL     1     -40.280  29.745   4.087  0.00  0.00    +0.000 C 
ATOM      7  C   UNL     1     -40.725  33.206   5.560  0.00  0.00    +0.000 C 
ATOM      8  C   UNL     1     -39.437  30.841   6.207  0.00  0.00    +0.000 C 
ATOM      9  C   UNL     1     -43.143  32.204   3.648  0.00  0.00    +0.000 C 
ATOM     10  C   UNL     1     -40.023  31.605   7.136  0.00  0.00    +0.000 C 
ENDROOT
BRANCH   5  11
ATOM     11  O   UNL     1     -41.410  30.529   2.103  0.00  0.00    +0.000 OA
ATOM     12  H   UNL     1     -41.049  29.751   1.643  0.00  0.00    +0.000 HD
ENDBRANCH   5  11
BRANCH   7  13
ATOM     13  O   UNL     1     -39.533  33.989   5.436  0.00  0.00    +0.000 OA
ATOM     14  H   UNL     1     -38.799  33.521   5.866  0.00  0.00    +0.000 HD
ENDBRANCH   7  13
BRANCH   8  16
ATOM     15  O   UNL     1     -37.723  29.949   7.579  0.00  0.00    +0.000 OA
ATOM     16  C   UNL     1     -38.531  29.792   6.677  0.00  0.00    +0.000 C 
BRANCH  16  17
ATOM     17  O   UNL     1     -38.755  28.667   5.952  0.00  0.00    +0.000 OA
ATOM     18  C   UNL     1     -39.136  27.513   6.711  0.00  0.00    +0.000 C 
ENDBRANCH  16  17
ENDBRANCH   8  16
TORSDOF 4
ENDMDL
