MODEL        2
REMARK  Name = 10466307
REMARK  6 active torsions:
REMARK  status: ('A' for Active; 'I' for Inactive)
REMARK    1  A    between atoms: O_2  and  C_9
REMARK    2  A    between atoms: O_3  and  C_11
REMARK    3  A    between atoms: O_4  and  C_15
REMARK    4  A    between atoms: O_4  and  C_16
REMARK    5  A    between atoms: C_8  and  C_13
REMARK    6  A    between atoms: C_12  and  C_15
REMARK                            x       y       z     vdW  Elec       q    Type
REMARK                         _______ _______ _______ _____ _____    ______ ____
ROOT
ATOM      1  O   UNL     1     -30.589  -3.267 -10.425  0.00  0.00    +0.000 OA
ATOM      2  C   UNL     1     -32.438  -4.888 -10.759  0.00  0.00    +0.000 C 
ATOM      3  C   UNL     1     -31.719  -5.499 -11.988  0.00  0.00    +0.000 C 
ATOM      4  C   UNL     1     -32.119  -5.876  -9.623  0.00  0.00    +0.000 C 
ATOM      5  C   UNL     1     -32.275  -7.229 -10.322  0.00  0.00    +0.000 C 
ATOM      6  C   UNL     1     -31.618  -7.014 -11.686  0.00  0.00    +0.000 C 
ATOM      7  C   UNL     1     -32.010  -3.441 -10.491  0.00  0.00    +0.000 C 
ATOM      8  C   UNL     1     -30.371  -4.872 -12.204  0.00  0.00    +0.000 C 
ATOM      9  C   UNL     1     -33.018  -5.708  -8.405  0.00  0.00    +0.000 C 
ATOM     10  C   UNL     1     -29.901  -3.880 -11.439  0.00  0.00    +0.000 C 
ENDROOT
BRANCH   5  11
ATOM     11  O   UNL     1     -33.651  -7.551 -10.502  0.00  0.00    +0.000 OA
ATOM     12  H   UNL     1     -33.705  -8.505 -10.685  0.00  0.00    +0.000 HD
ENDBRANCH   5  11
BRANCH   7  13
ATOM     13  O   UNL     1     -32.582  -2.606 -11.504  0.00  0.00    +0.000 OA
ATOM     14  H   UNL     1     -32.130  -1.747 -11.500  0.00  0.00    +0.000 HD
ENDBRANCH   7  13
BRANCH   8  16
ATOM     15  O   UNL     1     -29.512  -4.884 -14.413  0.00  0.00    +0.000 OA
ATOM     16  C   UNL     1     -29.507  -5.351 -13.285  0.00  0.00    +0.000 C 
BRANCH  16  17
ATOM     17  O   UNL     1     -28.738  -6.364 -12.810  0.00  0.00    +0.000 OA
ATOM     18  C   UNL     1     -28.791  -7.580 -13.564  0.00  0.00    +0.000 C 
ENDBRANCH  16  17
ENDBRANCH   8  16
TORSDOF 4
ENDMDL
