MODEL        2
REMARK  Name = 10466307
REMARK  6 active torsions:
REMARK  status: ('A' for Active; 'I' for Inactive)
REMARK    1  A    between atoms: O_2  and  C_9
REMARK    2  A    between atoms: O_3  and  C_11
REMARK    3  A    between atoms: O_4  and  C_15
REMARK    4  A    between atoms: O_4  and  C_16
REMARK    5  A    between atoms: C_8  and  C_13
REMARK    6  A    between atoms: C_12  and  C_15
REMARK                            x       y       z     vdW  Elec       q    Type
REMARK                         _______ _______ _______ _____ _____    ______ ____
ROOT
ATOM      1  O   UNL     1     -13.287  -7.498  -5.984  0.00  0.00    +0.000 OA
ATOM      2  C   UNL     1     -15.240  -8.986  -5.621  0.00  0.00    +0.000 C 
ATOM      3  C   UNL     1     -15.917  -8.460  -6.911  0.00  0.00    +0.000 C 
ATOM      4  C   UNL     1     -14.622 -10.328  -6.054  0.00  0.00    +0.000 C 
ATOM      5  C   UNL     1     -15.726 -10.918  -6.934  0.00  0.00    +0.000 C 
ATOM      6  C   UNL     1     -16.220  -9.724  -7.752  0.00  0.00    +0.000 C 
ATOM      7  C   UNL     1     -14.244  -7.981  -5.031  0.00  0.00    +0.000 C 
ATOM      8  C   UNL     1     -15.031  -7.492  -7.641  0.00  0.00    +0.000 C 
ATOM      9  C   UNL     1     -14.228 -11.219  -4.883  0.00  0.00    +0.000 C 
ATOM     10  C   UNL     1     -13.831  -7.117  -7.182  0.00  0.00    +0.000 C 
ENDROOT
BRANCH   5  11
ATOM     11  O   UNL     1     -16.793 -11.425  -6.139  0.00  0.00    +0.000 OA
ATOM     12  H   UNL     1     -16.772 -10.952  -5.288  0.00  0.00    +0.000 HD
ENDBRANCH   5  11
BRANCH   7  13
ATOM     13  O   UNL     1     -14.983  -6.899  -4.455  0.00  0.00    +0.000 OA
ATOM     14  H   UNL     1     -15.310  -6.323  -5.164  0.00  0.00    +0.000 HD
ENDBRANCH   7  13
BRANCH   8  16
ATOM     15  O   UNL     1     -16.580  -7.095  -9.391  0.00  0.00    +0.000 OA
ATOM     16  C   UNL     1     -15.467  -6.923  -8.918  0.00  0.00    +0.000 C 
BRANCH  16  17
ATOM     17  O   UNL     1     -14.444  -6.203  -9.445  0.00  0.00    +0.000 OA
ATOM     18  C   UNL     1     -14.609  -4.781  -9.405  0.00  0.00    +0.000 C 
ENDBRANCH  16  17
ENDBRANCH   8  16
TORSDOF 4
ENDMDL
