MODEL        2
REMARK  Name = 10466307
REMARK  6 active torsions:
REMARK  status: ('A' for Active; 'I' for Inactive)
REMARK    1  A    between atoms: O_2  and  C_9
REMARK    2  A    between atoms: O_3  and  C_11
REMARK    3  A    between atoms: O_4  and  C_15
REMARK    4  A    between atoms: O_4  and  C_16
REMARK    5  A    between atoms: C_8  and  C_13
REMARK    6  A    between atoms: C_12  and  C_15
REMARK                            x       y       z     vdW  Elec       q    Type
REMARK                         _______ _______ _______ _____ _____    ______ ____
ROOT
ATOM      1  O   UNL     1      14.510 121.816  21.048  0.00  0.00    +0.000 OA
ATOM      2  C   UNL     1      12.666 121.715  19.391  0.00  0.00    +0.000 C 
ATOM      3  C   UNL     1      13.611 122.204  18.265  0.00  0.00    +0.000 C 
ATOM      4  C   UNL     1      12.599 120.192  19.176  0.00  0.00    +0.000 C 
ATOM      5  C   UNL     1      12.502 120.089  17.652  0.00  0.00    +0.000 C 
ATOM      6  C   UNL     1      13.497 121.136  17.149  0.00  0.00    +0.000 C 
ATOM      7  C   UNL     1      13.140 122.147  20.783  0.00  0.00    +0.000 C 
ATOM      8  C   UNL     1      15.021 122.358  18.760  0.00  0.00    +0.000 C 
ATOM      9  C   UNL     1      11.442 119.527  19.911  0.00  0.00    +0.000 C 
ATOM     10  C   UNL     1      15.372 122.137  20.032  0.00  0.00    +0.000 C 
ENDROOT
BRANCH   5  11
ATOM     11  O   UNL     1      11.193 120.422  17.203  0.00  0.00    +0.000 OA
ATOM     12  H   UNL     1      10.920 121.229  17.674  0.00  0.00    +0.000 HD
ENDBRANCH   5  11
BRANCH   7  13
ATOM     13  O   UNL     1      12.918 123.555  20.918  0.00  0.00    +0.000 OA
ATOM     14  H   UNL     1      12.490 123.888  20.113  0.00  0.00    +0.000 HD
ENDBRANCH   7  13
BRANCH   8  16
ATOM     15  O   UNL     1      15.918 122.873  16.628  0.00  0.00    +0.000 OA
ATOM     16  C   UNL     1      16.081 122.757  17.833  0.00  0.00    +0.000 C 
BRANCH  16  17
ATOM     17  O   UNL     1      17.222 122.965  18.539  0.00  0.00    +0.000 OA
ATOM     18  C   UNL     1      17.442 124.314  18.966  0.00  0.00    +0.000 C 
ENDBRANCH  16  17
ENDBRANCH   8  16
TORSDOF 4
ENDMDL
