MODEL        2
REMARK  Name = 10466307
REMARK  6 active torsions:
REMARK  status: ('A' for Active; 'I' for Inactive)
REMARK    1  A    between atoms: O_2  and  C_9
REMARK    2  A    between atoms: O_3  and  C_11
REMARK    3  A    between atoms: O_4  and  C_15
REMARK    4  A    between atoms: O_4  and  C_16
REMARK    5  A    between atoms: C_8  and  C_13
REMARK    6  A    between atoms: C_12  and  C_15
REMARK                            x       y       z     vdW  Elec       q    Type
REMARK                         _______ _______ _______ _____ _____    ______ ____
ROOT
ATOM      1  O   UNL     1      14.745  16.245  22.579  0.00  0.00    +0.000 OA
ATOM      2  C   UNL     1      15.495  17.761  20.763  0.00  0.00    +0.000 C 
ATOM      3  C   UNL     1      14.817  16.867  19.696  0.00  0.00    +0.000 C 
ATOM      4  C   UNL     1      14.493  18.913  20.963  0.00  0.00    +0.000 C 
ATOM      5  C   UNL     1      14.050  19.203  19.527  0.00  0.00    +0.000 C 
ATOM      6  C   UNL     1      13.880  17.815  18.908  0.00  0.00    +0.000 C 
ATOM      7  C   UNL     1      15.847  16.987  22.039  0.00  0.00    +0.000 C 
ATOM      8  C   UNL     1      14.069  15.728  20.328  0.00  0.00    +0.000 C 
ATOM      9  C   UNL     1      15.092  20.119  21.676  0.00  0.00    +0.000 C 
ATOM     10  C   UNL     1      14.049  15.517  21.650  0.00  0.00    +0.000 C 
ENDROOT
BRANCH   5  11
ATOM     11  O   UNL     1      15.057  19.920  18.820  0.00  0.00    +0.000 OA
ATOM     12  H   UNL     1      15.868  19.384  18.844  0.00  0.00    +0.000 HD
ENDBRANCH   5  11
BRANCH   7  13
ATOM     13  O   UNL     1      16.953  16.126  21.753  0.00  0.00    +0.000 OA
ATOM     14  H   UNL     1      16.686  15.475  21.084  0.00  0.00    +0.000 HD
ENDBRANCH   7  13
BRANCH   8  16
ATOM     15  O   UNL     1      12.502  13.995  19.932  0.00  0.00    +0.000 OA
ATOM     16  C   UNL     1      13.309  14.798  19.491  0.00  0.00    +0.000 C 
BRANCH  16  17
ATOM     17  O   UNL     1      13.660  14.994  18.194  0.00  0.00    +0.000 OA
ATOM     18  C   UNL     1      12.569  15.182  17.286  0.00  0.00    +0.000 C 
ENDBRANCH  16  17
ENDBRANCH   8  16
TORSDOF 4
ENDMDL
