MODEL        2
REMARK  Name = 10466307
REMARK  6 active torsions:
REMARK  status: ('A' for Active; 'I' for Inactive)
REMARK    1  A    between atoms: O_2  and  C_9
REMARK    2  A    between atoms: O_3  and  C_11
REMARK    3  A    between atoms: O_4  and  C_15
REMARK    4  A    between atoms: O_4  and  C_16
REMARK    5  A    between atoms: C_8  and  C_13
REMARK    6  A    between atoms: C_12  and  C_15
REMARK                            x       y       z     vdW  Elec       q    Type
REMARK                         _______ _______ _______ _____ _____    ______ ____
ROOT
ATOM      1  O   UNL     1      56.921  33.757  76.236  0.00  0.00    +0.000 OA
ATOM      2  C   UNL     1      59.329  33.797  75.637  0.00  0.00    +0.000 C 
ATOM      3  C   UNL     1      59.645  32.729  76.713  0.00  0.00    +0.000 C 
ATOM      4  C   UNL     1      59.280  32.990  74.327  0.00  0.00    +0.000 C 
ATOM      5  C   UNL     1      60.465  32.036  74.494  0.00  0.00    +0.000 C 
ATOM      6  C   UNL     1      60.375  31.593  75.955  0.00  0.00    +0.000 C 
ATOM      7  C   UNL     1      58.055  34.588  75.953  0.00  0.00    +0.000 C 
ATOM      8  C   UNL     1      58.395  32.245  77.391  0.00  0.00    +0.000 C 
ATOM      9  C   UNL     1      59.363  33.858  73.078  0.00  0.00    +0.000 C 
ATOM     10  C   UNL     1      57.181  32.731  77.107  0.00  0.00    +0.000 C 
ENDROOT
BRANCH   5  11
ATOM     11  O   UNL     1      61.697  32.715  74.277  0.00  0.00    +0.000 OA
ATOM     12  H   UNL     1      61.994  32.498  73.375  0.00  0.00    +0.000 HD
ENDBRANCH   5  11
BRANCH   7  13
ATOM     13  O   UNL     1      58.331  35.468  77.047  0.00  0.00    +0.000 OA
ATOM     14  H   UNL     1      59.288  35.620  77.100  0.00  0.00    +0.000 HD
ENDBRANCH   7  13
BRANCH   8  16
ATOM     15  O   UNL     1      57.530  30.850  79.100  0.00  0.00    +0.000 OA
ATOM     16  C   UNL     1      58.473  31.190  78.403  0.00  0.00    +0.000 C 
BRANCH  16  17
ATOM     17  O   UNL     1      59.735  30.689  78.412  0.00  0.00    +0.000 OA
ATOM     18  C   UNL     1      60.464  30.886  79.629  0.00  0.00    +0.000 C 
ENDBRANCH  16  17
ENDBRANCH   8  16
TORSDOF 4
ENDMDL
