MODEL        2
REMARK  Name = 10466307
REMARK  6 active torsions:
REMARK  status: ('A' for Active; 'I' for Inactive)
REMARK    1  A    between atoms: O_2  and  C_9
REMARK    2  A    between atoms: O_3  and  C_11
REMARK    3  A    between atoms: O_4  and  C_15
REMARK    4  A    between atoms: O_4  and  C_16
REMARK    5  A    between atoms: C_8  and  C_13
REMARK    6  A    between atoms: C_12  and  C_15
REMARK                            x       y       z     vdW  Elec       q    Type
REMARK                         _______ _______ _______ _____ _____    ______ ____
ROOT
ATOM      1  O   UNL     1     148.502 171.040 140.444  0.00  0.00    +0.000 OA
ATOM      2  C   UNL     1     149.599 172.577 142.054  0.00  0.00    +0.000 C 
ATOM      3  C   UNL     1     148.545 172.242 143.139  0.00  0.00    +0.000 C 
ATOM      4  C   UNL     1     150.812 171.714 142.446  0.00  0.00    +0.000 C 
ATOM      5  C   UNL     1     150.836 171.869 143.968  0.00  0.00    +0.000 C 
ATOM      6  C   UNL     1     149.363 171.779 144.369  0.00  0.00    +0.000 C 
ATOM      7  C   UNL     1     149.074 172.341 140.634  0.00  0.00    +0.000 C 
ATOM      8  C   UNL     1     147.587 171.186 142.665  0.00  0.00    +0.000 C 
ATOM      9  C   UNL     1     152.105 172.143 141.765  0.00  0.00    +0.000 C 
ATOM     10  C   UNL     1     147.639 170.656 141.437  0.00  0.00    +0.000 C 
ENDROOT
BRANCH   5  11
ATOM     11  O   UNL     1     151.354 173.141 144.341  0.00  0.00    +0.000 OA
ATOM     12  H   UNL     1     151.338 173.190 145.313  0.00  0.00    +0.000 HD
ENDBRANCH   5  11
BRANCH   7  13
ATOM     13  O   UNL     1     148.124 173.367 140.328  0.00  0.00    +0.000 OA
ATOM     14  H   UNL     1     147.259 173.118 140.691  0.00  0.00    +0.000 HD
ENDBRANCH   7  13
BRANCH   8  16
ATOM     15  O   UNL     1     145.666 171.389 144.037  0.00  0.00    +0.000 OA
ATOM     16  C   UNL     1     146.546 170.687 143.566  0.00  0.00    +0.000 C 
BRANCH  16  17
ATOM     17  O   UNL     1     146.741 169.358 143.762  0.00  0.00    +0.000 OA
ATOM     18  C   UNL     1     145.713 168.505 143.246  0.00  0.00    +0.000 C 
ENDBRANCH  16  17
ENDBRANCH   8  16
TORSDOF 4
ENDMDL
