MODEL        2
REMARK  Name = 10466307
REMARK  6 active torsions:
REMARK  status: ('A' for Active; 'I' for Inactive)
REMARK    1  A    between atoms: O_2  and  C_9
REMARK    2  A    between atoms: O_3  and  C_11
REMARK    3  A    between atoms: O_4  and  C_15
REMARK    4  A    between atoms: O_4  and  C_16
REMARK    5  A    between atoms: C_8  and  C_13
REMARK    6  A    between atoms: C_12  and  C_15
REMARK                            x       y       z     vdW  Elec       q    Type
REMARK                         _______ _______ _______ _____ _____    ______ ____
ROOT
ATOM      1  O   UNL     1      -0.783  53.195 -23.693  0.00  0.00    +0.000 OA
ATOM      2  C   UNL     1      -1.837  54.853 -25.209  0.00  0.00    +0.000 C 
ATOM      3  C   UNL     1      -1.562  55.995 -24.200  0.00  0.00    +0.000 C 
ATOM      4  C   UNL     1      -0.709  55.004 -26.246  0.00  0.00    +0.000 C 
ATOM      5  C   UNL     1      -0.641  56.522 -26.424  0.00  0.00    +0.000 C 
ATOM      6  C   UNL     1      -0.781  57.065 -25.002  0.00  0.00    +0.000 C 
ATOM      7  C   UNL     1      -1.909  53.479 -24.533  0.00  0.00    +0.000 C 
ATOM      8  C   UNL     1      -0.788  55.502 -23.010  0.00  0.00    +0.000 C 
ATOM      9  C   UNL     1      -0.972  54.245 -27.541  0.00  0.00    +0.000 C 
ATOM     10  C   UNL     1      -0.437  54.221 -22.852  0.00  0.00    +0.000 C 
ENDROOT
BRANCH   5  11
ATOM     11  O   UNL     1      -1.724  56.989 -27.222  0.00  0.00    +0.000 OA
ATOM     12  H   UNL     1      -2.430  56.322 -27.173  0.00  0.00    +0.000 HD
ENDBRANCH   5  11
BRANCH   7  13
ATOM     13  O   UNL     1      -3.132  53.404 -23.793  0.00  0.00    +0.000 OA
ATOM     14  H   UNL     1      -3.047  52.724 -23.106  0.00  0.00    +0.000 HD
ENDBRANCH   7  13
BRANCH   8  16
ATOM     15  O   UNL     1      -0.040  57.595 -22.187  0.00  0.00    +0.000 OA
ATOM     16  C   UNL     1      -0.378  56.442 -21.965  0.00  0.00    +0.000 C 
BRANCH  16  17
ATOM     17  O   UNL     1      -0.445  55.814 -20.764  0.00  0.00    +0.000 OA
ATOM     18  C   UNL     1      -0.812  56.645 -19.657  0.00  0.00    +0.000 C 
ENDBRANCH  16  17
ENDBRANCH   8  16
TORSDOF 4
ENDMDL
