MODEL        2
REMARK  Name = 10466307
REMARK  6 active torsions:
REMARK  status: ('A' for Active; 'I' for Inactive)
REMARK    1  A    between atoms: O_2  and  C_9
REMARK    2  A    between atoms: O_3  and  C_11
REMARK    3  A    between atoms: O_4  and  C_15
REMARK    4  A    between atoms: O_4  and  C_16
REMARK    5  A    between atoms: C_8  and  C_13
REMARK    6  A    between atoms: C_12  and  C_15
REMARK                            x       y       z     vdW  Elec       q    Type
REMARK                         _______ _______ _______ _____ _____    ______ ____
ROOT
ATOM      1  O   UNL     1      22.820   1.907   5.533  0.00  0.00    +0.000 OA
ATOM      2  C   UNL     1      22.848  -0.378   4.565  0.00  0.00    +0.000 C 
ATOM      3  C   UNL     1      24.288  -0.613   5.085  0.00  0.00    +0.000 C 
ATOM      4  C   UNL     1      21.966  -1.103   5.598  0.00  0.00    +0.000 C 
ATOM      5  C   UNL     1      22.759  -2.388   5.849  0.00  0.00    +0.000 C 
ATOM      6  C   UNL     1      24.211  -1.915   5.919  0.00  0.00    +0.000 C 
ATOM      7  C   UNL     1      22.528   1.109   4.378  0.00  0.00    +0.000 C 
ATOM      8  C   UNL     1      24.776   0.553   5.897  0.00  0.00    +0.000 C 
ATOM      9  C   UNL     1      20.542  -1.345   5.114  0.00  0.00    +0.000 C 
ATOM     10  C   UNL     1      24.047   1.659   6.090  0.00  0.00    +0.000 C 
ENDROOT
BRANCH   5  11
ATOM     11  O   UNL     1      22.606  -3.299   4.765  0.00  0.00    +0.000 OA
ATOM     12  H   UNL     1      23.064  -2.917   3.997  0.00  0.00    +0.000 HD
ENDBRANCH   5  11
BRANCH   7  13
ATOM     13  O   UNL     1      23.243   1.584   3.233  0.00  0.00    +0.000 OA
ATOM     14  H   UNL     1      24.058   2.023   3.526  0.00  0.00    +0.000 HD
ENDBRANCH   7  13
BRANCH   8  16
ATOM     15  O   UNL     1      26.276   0.218   7.701  0.00  0.00    +0.000 OA
ATOM     16  C   UNL     1      26.096   0.503   6.527  0.00  0.00    +0.000 C 
BRANCH  16  17
ATOM     17  O   UNL     1      27.034   0.818   5.598  0.00  0.00    +0.000 OA
ATOM     18  C   UNL     1      27.815  -0.282   5.117  0.00  0.00    +0.000 C 
ENDBRANCH  16  17
ENDBRANCH   8  16
TORSDOF 4
ENDMDL
