MODEL        2
REMARK  Name = 10466307
REMARK  6 active torsions:
REMARK  status: ('A' for Active; 'I' for Inactive)
REMARK    1  A    between atoms: O_2  and  C_9
REMARK    2  A    between atoms: O_3  and  C_11
REMARK    3  A    between atoms: O_4  and  C_15
REMARK    4  A    between atoms: O_4  and  C_16
REMARK    5  A    between atoms: C_8  and  C_13
REMARK    6  A    between atoms: C_12  and  C_15
REMARK                            x       y       z     vdW  Elec       q    Type
REMARK                         _______ _______ _______ _____ _____    ______ ____
ROOT
ATOM      1  O   UNL     1     -12.090  11.203 -42.298  0.00  0.00    +0.000 OA
ATOM      2  C   UNL     1     -13.256  13.208 -41.414  0.00  0.00    +0.000 C 
ATOM      3  C   UNL     1     -14.189  12.321 -40.551  0.00  0.00    +0.000 C 
ATOM      4  C   UNL     1     -12.194  13.700 -40.414  0.00  0.00    +0.000 C 
ATOM      5  C   UNL     1     -13.041  14.018 -39.179  0.00  0.00    +0.000 C 
ATOM      6  C   UNL     1     -14.033  12.856 -39.106  0.00  0.00    +0.000 C 
ATOM      7  C   UNL     1     -12.697  12.459 -42.629  0.00  0.00    +0.000 C 
ATOM      8  C   UNL     1     -13.822  10.869 -40.661  0.00  0.00    +0.000 C 
ATOM      9  C   UNL     1     -11.386  14.886 -40.925  0.00  0.00    +0.000 C 
ATOM     10  C   UNL     1     -12.836  10.426 -41.450  0.00  0.00    +0.000 C 
ENDROOT
BRANCH   5  11
ATOM     11  O   UNL     1     -13.751  15.240 -39.351  0.00  0.00    +0.000 OA
ATOM     12  H   UNL     1     -14.063  15.269 -40.272  0.00  0.00    +0.000 HD
ENDBRANCH   5  11
BRANCH   7  13
ATOM     13  O   UNL     1     -13.755  12.283 -43.577  0.00  0.00    +0.000 OA
ATOM     14  H   UNL     1     -14.361  13.039 -43.520  0.00  0.00    +0.000 HD
ENDBRANCH   7  13
BRANCH   8  16
ATOM     15  O   UNL     1     -15.613   9.380 -40.221  0.00  0.00    +0.000 OA
ATOM     16  C   UNL     1     -14.549   9.870 -39.875  0.00  0.00    +0.000 C 
BRANCH  16  17
ATOM     17  O   UNL     1     -13.844   9.608 -38.745  0.00  0.00    +0.000 OA
ATOM     18  C   UNL     1     -13.748   8.224 -38.389  0.00  0.00    +0.000 C 
ENDBRANCH  16  17
ENDBRANCH   8  16
TORSDOF 4
ENDMDL
