MODEL        2
REMARK  Name = 10466307
REMARK  6 active torsions:
REMARK  status: ('A' for Active; 'I' for Inactive)
REMARK    1  A    between atoms: O_2  and  C_9
REMARK    2  A    between atoms: O_3  and  C_11
REMARK    3  A    between atoms: O_4  and  C_15
REMARK    4  A    between atoms: O_4  and  C_16
REMARK    5  A    between atoms: C_8  and  C_13
REMARK    6  A    between atoms: C_12  and  C_15
REMARK                            x       y       z     vdW  Elec       q    Type
REMARK                         _______ _______ _______ _____ _____    ______ ____
ROOT
ATOM      1  O   UNL     1       0.575  12.169  18.775  0.00  0.00    +0.000 OA
ATOM      2  C   UNL     1       2.831  13.201  18.714  0.00  0.00    +0.000 C 
ATOM      3  C   UNL     1       2.242  14.584  19.086  0.00  0.00    +0.000 C 
ATOM      4  C   UNL     1       3.389  12.672  20.048  0.00  0.00    +0.000 C 
ATOM      5  C   UNL     1       4.036  13.925  20.642  0.00  0.00    +0.000 C 
ATOM      6  C   UNL     1       3.029  15.036  20.340  0.00  0.00    +0.000 C 
ATOM      7  C   UNL     1       1.801  12.287  18.041  0.00  0.00    +0.000 C 
ATOM      8  C   UNL     1       0.764  14.500  19.344  0.00  0.00    +0.000 C 
ATOM      9  C   UNL     1       4.354  11.504  19.880  0.00  0.00    +0.000 C 
ATOM     10  C   UNL     1       0.068  13.365  19.215  0.00  0.00    +0.000 C 
ENDROOT
BRANCH   5  11
ATOM     11  O   UNL     1       5.272  14.213  19.997  0.00  0.00    +0.000 OA
ATOM     12  H   UNL     1       5.585  15.070  20.336  0.00  0.00    +0.000 HD
ENDBRANCH   5  11
BRANCH   7  13
ATOM     13  O   UNL     1       1.561  12.775  16.717  0.00  0.00    +0.000 OA
ATOM     14  H   UNL     1       2.202  13.476  16.516  0.00  0.00    +0.000 HD
ENDBRANCH   7  13
BRANCH   8  16
ATOM     15  O   UNL     1      -0.784  16.271  19.061  0.00  0.00    +0.000 OA
ATOM     16  C   UNL     1       0.027  15.692  19.766  0.00  0.00    +0.000 C 
BRANCH  16  17
ATOM     17  O   UNL     1       0.402  16.010  21.032  0.00  0.00    +0.000 OA
ATOM     18  C   UNL     1      -0.643  16.510  21.874  0.00  0.00    +0.000 C 
ENDBRANCH  16  17
ENDBRANCH   8  16
TORSDOF 4
ENDMDL
