MODEL        2
REMARK  Name = 10466307
REMARK  6 active torsions:
REMARK  status: ('A' for Active; 'I' for Inactive)
REMARK    1  A    between atoms: O_2  and  C_9
REMARK    2  A    between atoms: O_3  and  C_11
REMARK    3  A    between atoms: O_4  and  C_15
REMARK    4  A    between atoms: O_4  and  C_16
REMARK    5  A    between atoms: C_8  and  C_13
REMARK    6  A    between atoms: C_12  and  C_15
REMARK                            x       y       z     vdW  Elec       q    Type
REMARK                         _______ _______ _______ _____ _____    ______ ____
ROOT
ATOM      1  O   UNL     1     -11.424  -6.805 -24.869  0.00  0.00    +0.000 OA
ATOM      2  C   UNL     1     -11.160  -6.167 -22.486  0.00  0.00    +0.000 C 
ATOM      3  C   UNL     1      -9.652  -5.880 -22.699  0.00  0.00    +0.000 C 
ATOM      4  C   UNL     1     -11.805  -4.769 -22.523  0.00  0.00    +0.000 C 
ATOM      5  C   UNL     1     -10.806  -3.935 -21.718  0.00  0.00    +0.000 C 
ATOM      6  C   UNL     1      -9.442  -4.429 -22.202  0.00  0.00    +0.000 C 
ATOM      7  C   UNL     1     -11.718  -7.160 -23.512  0.00  0.00    +0.000 C 
ATOM      8  C   UNL     1      -9.260  -6.048 -24.140  0.00  0.00    +0.000 C 
ATOM      9  C   UNL     1     -13.221  -4.742 -21.961  0.00  0.00    +0.000 C 
ATOM     10  C   UNL     1     -10.120  -6.443 -25.085  0.00  0.00    +0.000 C 
ENDROOT
BRANCH   5  11
ATOM     11  O   UNL     1     -10.938  -4.191 -20.324  0.00  0.00    +0.000 OA
ATOM     12  H   UNL     1     -10.829  -5.149 -20.192  0.00  0.00    +0.000 HD
ENDBRANCH   5  11
BRANCH   7  13
ATOM     13  O   UNL     1     -11.210  -8.462 -23.201  0.00  0.00    +0.000 OA
ATOM     14  H   UNL     1     -10.242  -8.452 -23.275  0.00  0.00    +0.000 HD
ENDBRANCH   7  13
BRANCH   8  16
ATOM     15  O   UNL     1      -7.440  -4.639 -24.705  0.00  0.00    +0.000 OA
ATOM     16  C   UNL     1      -7.886  -5.767 -24.560  0.00  0.00    +0.000 C 
BRANCH  16  17
ATOM     17  O   UNL     1      -7.238  -6.945 -24.745  0.00  0.00    +0.000 OA
ATOM     18  C   UNL     1      -6.222  -6.935 -25.755  0.00  0.00    +0.000 C 
ENDBRANCH  16  17
ENDBRANCH   8  16
TORSDOF 4
ENDMDL
