MODEL        2
REMARK  Name = 10466307
REMARK  6 active torsions:
REMARK  status: ('A' for Active; 'I' for Inactive)
REMARK    1  A    between atoms: O_2  and  C_9
REMARK    2  A    between atoms: O_3  and  C_11
REMARK    3  A    between atoms: O_4  and  C_15
REMARK    4  A    between atoms: O_4  and  C_16
REMARK    5  A    between atoms: C_8  and  C_13
REMARK    6  A    between atoms: C_12  and  C_15
REMARK                            x       y       z     vdW  Elec       q    Type
REMARK                         _______ _______ _______ _____ _____    ______ ____
ROOT
ATOM      1  O   UNL     1      27.784  40.215  17.117  0.00  0.00    +0.000 OA
ATOM      2  C   UNL     1      28.743  38.060  16.345  0.00  0.00    +0.000 C 
ATOM      3  C   UNL     1      28.125  38.255  14.938  0.00  0.00    +0.000 C 
ATOM      4  C   UNL     1      30.211  38.486  16.160  0.00  0.00    +0.000 C 
ATOM      5  C   UNL     1      30.555  37.865  14.805  0.00  0.00    +0.000 C 
ATOM      6  C   UNL     1      29.313  38.131  13.953  0.00  0.00    +0.000 C 
ATOM      7  C   UNL     1      27.982  38.830  17.430  0.00  0.00    +0.000 C 
ATOM      8  C   UNL     1      27.429  39.581  14.823  0.00  0.00    +0.000 C 
ATOM      9  C   UNL     1      31.120  38.029  17.294  0.00  0.00    +0.000 C 
ATOM     10  C   UNL     1      27.334  40.442  15.842  0.00  0.00    +0.000 C 
ENDROOT
BRANCH   5  11
ATOM     11  O   UNL     1      30.758  36.461  14.926  0.00  0.00    +0.000 OA
ATOM     12  H   UNL     1      30.692  36.238  15.871  0.00  0.00    +0.000 HD
ENDBRANCH   5  11
BRANCH   7  13
ATOM     13  O   UNL     1      26.731  38.172  17.657  0.00  0.00    +0.000 OA
ATOM     14  H   UNL     1      26.113  38.796  18.070  0.00  0.00    +0.000 HD
ENDBRANCH   7  13
BRANCH   8  16
ATOM     15  O   UNL     1      26.544  39.197  12.658  0.00  0.00    +0.000 OA
ATOM     16  C   UNL     1      26.826  39.982  13.550  0.00  0.00    +0.000 C 
BRANCH  16  17
ATOM     17  O   UNL     1      26.650  41.328  13.556  0.00  0.00    +0.000 OA
ATOM     18  C   UNL     1      27.805  42.100  13.210  0.00  0.00    +0.000 C 
ENDBRANCH  16  17
ENDBRANCH   8  16
TORSDOF 4
ENDMDL
