MODEL        2
REMARK  Name = 10466307
REMARK  6 active torsions:
REMARK  status: ('A' for Active; 'I' for Inactive)
REMARK    1  A    between atoms: O_2  and  C_9
REMARK    2  A    between atoms: O_3  and  C_11
REMARK    3  A    between atoms: O_4  and  C_15
REMARK    4  A    between atoms: O_4  and  C_16
REMARK    5  A    between atoms: C_8  and  C_13
REMARK    6  A    between atoms: C_12  and  C_15
REMARK                            x       y       z     vdW  Elec       q    Type
REMARK                         _______ _______ _______ _____ _____    ______ ____
ROOT
ATOM      1  O   UNL     1      19.975  15.400  -0.048  0.00  0.00    +0.000 OA
ATOM      2  C   UNL     1      19.231  17.348  -1.394  0.00  0.00    +0.000 C 
ATOM      3  C   UNL     1      18.055  17.610  -0.419  0.00  0.00    +0.000 C 
ATOM      4  C   UNL     1      20.295  18.375  -0.966  0.00  0.00    +0.000 C 
ATOM      5  C   UNL     1      19.448  19.623  -0.708  0.00  0.00    +0.000 C 
ATOM      6  C   UNL     1      18.215  19.086   0.019  0.00  0.00    +0.000 C 
ATOM      7  C   UNL     1      19.699  15.888  -1.367  0.00  0.00    +0.000 C 
ATOM      8  C   UNL     1      18.089  16.665   0.748  0.00  0.00    +0.000 C 
ATOM      9  C   UNL     1      21.390  18.579  -2.005  0.00  0.00    +0.000 C 
ATOM     10  C   UNL     1      19.006  15.700   0.875  0.00  0.00    +0.000 C 
ENDROOT
BRANCH   5  11
ATOM     11  O   UNL     1      19.052  20.229  -1.934  0.00  0.00    +0.000 OA
ATOM     12  H   UNL     1      19.837  20.660  -2.313  0.00  0.00    +0.000 HD
ENDBRANCH   5  11
BRANCH   7  13
ATOM     13  O   UNL     1      18.707  15.085  -2.014  0.00  0.00    +0.000 OA
ATOM     14  H   UNL     1      19.142  14.482  -2.638  0.00  0.00    +0.000 HD
ENDBRANCH   7  13
BRANCH   8  16
ATOM     15  O   UNL     1      16.364  17.756   1.953  0.00  0.00    +0.000 OA
ATOM     16  C   UNL     1      17.093  16.786   1.815  0.00  0.00    +0.000 C 
BRANCH  16  17
ATOM     17  O   UNL     1      17.136  15.665   2.579  0.00  0.00    +0.000 OA
ATOM     18  C   UNL     1      16.542  14.501   1.994  0.00  0.00    +0.000 C 
ENDBRANCH  16  17
ENDBRANCH   8  16
TORSDOF 4
ENDMDL
