MODEL        2
REMARK  Name = 10466307
REMARK  6 active torsions:
REMARK  status: ('A' for Active; 'I' for Inactive)
REMARK    1  A    between atoms: O_2  and  C_9
REMARK    2  A    between atoms: O_3  and  C_11
REMARK    3  A    between atoms: O_4  and  C_15
REMARK    4  A    between atoms: O_4  and  C_16
REMARK    5  A    between atoms: C_8  and  C_13
REMARK    6  A    between atoms: C_12  and  C_15
REMARK                            x       y       z     vdW  Elec       q    Type
REMARK                         _______ _______ _______ _____ _____    ______ ____
ROOT
ATOM      1  O   UNL     1     -47.396  36.377 -11.621  0.00  0.00    +0.000 OA
ATOM      2  C   UNL     1     -49.873  36.294 -11.493  0.00  0.00    +0.000 C 
ATOM      3  C   UNL     1     -49.926  35.237 -12.625  0.00  0.00    +0.000 C 
ATOM      4  C   UNL     1     -50.034  35.460 -10.208  0.00  0.00    +0.000 C 
ATOM      5  C   UNL     1     -51.118  34.457 -10.613  0.00  0.00    +0.000 C 
ATOM      6  C   UNL     1     -50.731  34.053 -12.035  0.00  0.00    +0.000 C 
ATOM      7  C   UNL     1     -48.602  37.149 -11.549  0.00  0.00    +0.000 C 
ATOM      8  C   UNL     1     -48.547  34.827 -13.057  0.00  0.00    +0.000 C 
ATOM      9  C   UNL     1     -50.396  36.295  -8.987  0.00  0.00    +0.000 C 
ATOM     10  C   UNL     1     -47.435  35.361 -12.540  0.00  0.00    +0.000 C 
ENDROOT
BRANCH   5  11
ATOM     11  O   UNL     1     -52.401  35.074 -10.625  0.00  0.00    +0.000 OA
ATOM     12  H   UNL     1     -52.265  36.026 -10.774  0.00  0.00    +0.000 HD
ENDBRANCH   5  11
BRANCH   7  13
ATOM     13  O   UNL     1     -48.707  38.040 -12.663  0.00  0.00    +0.000 OA
ATOM     14  H   UNL     1     -48.701  37.524 -13.485  0.00  0.00    +0.000 HD
ENDBRANCH   7  13
BRANCH   8  16
ATOM     15  O   UNL     1     -48.656  32.616 -13.904  0.00  0.00    +0.000 OA
ATOM     16  C   UNL     1     -48.380  33.793 -14.080  0.00  0.00    +0.000 C 
BRANCH  16  17
ATOM     17  O   UNL     1     -47.886  34.369 -15.205  0.00  0.00    +0.000 OA
ATOM     18  C   UNL     1     -46.458  34.446 -15.279  0.00  0.00    +0.000 C 
ENDBRANCH  16  17
ENDBRANCH   8  16
TORSDOF 4
ENDMDL
