MODEL        2
REMARK  Name = 10466307
REMARK  6 active torsions:
REMARK  status: ('A' for Active; 'I' for Inactive)
REMARK    1  A    between atoms: O_2  and  C_9
REMARK    2  A    between atoms: O_3  and  C_11
REMARK    3  A    between atoms: O_4  and  C_15
REMARK    4  A    between atoms: O_4  and  C_16
REMARK    5  A    between atoms: C_8  and  C_13
REMARK    6  A    between atoms: C_12  and  C_15
REMARK                            x       y       z     vdW  Elec       q    Type
REMARK                         _______ _______ _______ _____ _____    ______ ____
ROOT
ATOM      1  O   UNL     1      28.595   7.696  57.115  0.00  0.00    +0.000 OA
ATOM      2  C   UNL     1      27.549   6.043  58.642  0.00  0.00    +0.000 C 
ATOM      3  C   UNL     1      28.076   4.868  57.781  0.00  0.00    +0.000 C 
ATOM      4  C   UNL     1      28.546   6.112  59.814  0.00  0.00    +0.000 C 
ATOM      5  C   UNL     1      28.761   4.631  60.137  0.00  0.00    +0.000 C 
ATOM      6  C   UNL     1      28.863   3.967  58.763  0.00  0.00    +0.000 C 
ATOM      7  C   UNL     1      27.410   7.342  57.840  0.00  0.00    +0.000 C 
ATOM      8  C   UNL     1      28.935   5.359  56.650  0.00  0.00    +0.000 C 
ATOM      9  C   UNL     1      28.037   6.930  60.994  0.00  0.00    +0.000 C 
ATOM     10  C   UNL     1      29.157   6.658  56.418  0.00  0.00    +0.000 C 
ENDROOT
BRANCH   5  11
ATOM     11  O   UNL     1      27.644   4.098  60.842  0.00  0.00    +0.000 OA
ATOM     12  H   UNL     1      27.948   3.300  61.309  0.00  0.00    +0.000 HD
ENDBRANCH   5  11
BRANCH   7  13
ATOM     13  O   UNL     1      26.290   7.209  56.958  0.00  0.00    +0.000 OA
ATOM     14  H   UNL     1      26.572   7.416  56.053  0.00  0.00    +0.000 HD
ENDBRANCH   7  13
BRANCH   8  16
ATOM     15  O   UNL     1      29.909   3.273  56.089  0.00  0.00    +0.000 OA
ATOM     16  C   UNL     1      29.577   4.399  55.751  0.00  0.00    +0.000 C 
BRANCH  16  17
ATOM     17  O   UNL     1      29.723   4.975  54.530  0.00  0.00    +0.000 OA
ATOM     18  C   UNL     1      29.005   4.343  53.464  0.00  0.00    +0.000 C 
ENDBRANCH  16  17
ENDBRANCH   8  16
TORSDOF 4
ENDMDL
