MODEL        2
REMARK  Name = 10466307
REMARK  6 active torsions:
REMARK  status: ('A' for Active; 'I' for Inactive)
REMARK    1  A    between atoms: O_2  and  C_9
REMARK    2  A    between atoms: O_3  and  C_11
REMARK    3  A    between atoms: O_4  and  C_15
REMARK    4  A    between atoms: O_4  and  C_16
REMARK    5  A    between atoms: C_8  and  C_13
REMARK    6  A    between atoms: C_12  and  C_15
REMARK                            x       y       z     vdW  Elec       q    Type
REMARK                         _______ _______ _______ _____ _____    ______ ____
ROOT
ATOM      1  O   UNL     1      33.588 -10.101   3.082  0.00  0.00    +0.000 OA
ATOM      2  C   UNL     1      33.208  -9.229   5.374  0.00  0.00    +0.000 C 
ATOM      3  C   UNL     1      33.909  -7.896   5.015  0.00  0.00    +0.000 C 
ATOM      4  C   UNL     1      31.709  -8.891   5.273  0.00  0.00    +0.000 C 
ATOM      5  C   UNL     1      31.650  -7.506   5.921  0.00  0.00    +0.000 C 
ATOM      6  C   UNL     1      32.885  -6.791   5.370  0.00  0.00    +0.000 C 
ATOM      7  C   UNL     1      33.666 -10.390   4.484  0.00  0.00    +0.000 C 
ATOM      8  C   UNL     1      34.307  -7.857   3.566  0.00  0.00    +0.000 C 
ATOM      9  C   UNL     1      30.810  -9.922   5.944  0.00  0.00    +0.000 C 
ATOM     10  C   UNL     1      34.105  -8.882   2.730  0.00  0.00    +0.000 C 
ENDROOT
BRANCH   5  11
ATOM     11  O   UNL     1      31.749  -7.604   7.338  0.00  0.00    +0.000 OA
ATOM     12  H   UNL     1      30.919  -7.997   7.661  0.00  0.00    +0.000 HD
ENDBRANCH   5  11
BRANCH   7  13
ATOM     13  O   UNL     1      35.000 -10.747   4.859  0.00  0.00    +0.000 OA
ATOM     14  H   UNL     1      35.039 -11.702   5.028  0.00  0.00    +0.000 HD
ENDBRANCH   7  13
BRANCH   8  16
ATOM     15  O   UNL     1      36.141  -6.469   2.996  0.00  0.00    +0.000 OA
ATOM     16  C   UNL     1      34.934  -6.655   3.013  0.00  0.00    +0.000 C 
BRANCH  16  17
ATOM     17  O   UNL     1      33.961  -5.832   2.545  0.00  0.00    +0.000 OA
ATOM     18  C   UNL     1      33.541  -6.082   1.199  0.00  0.00    +0.000 C 
ENDBRANCH  16  17
ENDBRANCH   8  16
TORSDOF 4
ENDMDL
