MODEL        3
REMARK  Name = 161313
REMARK  3 active torsions:
REMARK  status: ('A' for Active; 'I' for Inactive)
REMARK    1  A    between atoms: N_1  and  C_10
REMARK    2  A    between atoms: C_4  and  C_9
REMARK    3  A    between atoms: C_14  and  C_15
REMARK                            x       y       z     vdW  Elec       q    Type
REMARK                         _______ _______ _______ _____ _____    ______ ____
ROOT
ATOM      1  N   UNL     1      -8.202  -6.951 -24.933  0.00  0.00    +0.000 NA
ATOM      2  C   UNL     1      -8.889  -5.391 -23.234  0.00  0.00    +0.000 A 
ATOM      3  C   UNL     1      -7.574  -5.026 -23.006  0.00  0.00    +0.000 A 
ATOM      4  C   UNL     1      -9.158  -6.345 -24.193  0.00  0.00    +0.000 A 
ATOM      5  C   UNL     1      -6.562  -5.627 -23.748  0.00  0.00    +0.000 A 
ATOM      6  C   UNL     1      -6.926  -6.575 -24.691  0.00  0.00    +0.000 A 
ENDROOT
BRANCH   2   8
ATOM      7  N   UNL     1     -10.384  -3.394 -22.929  0.00  0.00    +0.000 NA
ATOM      8  C   UNL     1     -10.023  -4.749 -22.435  0.00  0.00    +0.000 C 
ATOM      9  C   UNL     1     -11.242  -5.702 -22.454  0.00  0.00    +0.000 C 
ATOM     10  C   UNL     1     -12.430  -5.123 -21.699  0.00  0.00    +0.000 C 
ATOM     11  C   UNL     1     -12.754  -3.735 -22.231  0.00  0.00    +0.000 C 
ATOM     12  C   UNL     1     -11.524  -2.833 -22.179  0.00  0.00    +0.000 C 
ATOM     13  C   UNL     1      -9.257  -2.458 -22.836  0.00  0.00    +0.000 C 
ENDBRANCH   2   8
BRANCH   6  15
ATOM     14  N   UNL     1      -5.036  -7.716 -27.693  0.00  0.00    +0.000 NA
ATOM     15  C   UNL     1      -5.930  -7.240 -25.499  0.00  0.00    +0.000 A 
ATOM     16  C   UNL     1      -4.938  -8.019 -24.916  0.00  0.00    +0.000 A 
ATOM     17  C   UNL     1      -5.936  -7.121 -26.879  0.00  0.00    +0.000 A 
ATOM     18  C   UNL     1      -3.993  -8.648 -25.721  0.00  0.00    +0.000 A 
ATOM     19  C   UNL     1      -4.084  -8.466 -27.090  0.00  0.00    +0.000 A 
ENDBRANCH   6  15
TORSDOF 2
ENDMDL
