MODEL        3
REMARK  Name = 161313
REMARK  3 active torsions:
REMARK  status: ('A' for Active; 'I' for Inactive)
REMARK    1  A    between atoms: N_1  and  C_10
REMARK    2  A    between atoms: C_4  and  C_9
REMARK    3  A    between atoms: C_14  and  C_15
REMARK                            x       y       z     vdW  Elec       q    Type
REMARK                         _______ _______ _______ _____ _____    ______ ____
ROOT
ATOM      1  N   UNL     1     -42.345  30.750   5.645  0.00  0.00    +0.000 NA
ATOM      2  C   UNL     1     -40.081  29.933   5.631  0.00  0.00    +0.000 A 
ATOM      3  C   UNL     1     -39.887  30.428   4.354  0.00  0.00    +0.000 A 
ATOM      4  C   UNL     1     -41.308  30.112   6.234  0.00  0.00    +0.000 A 
ATOM      5  C   UNL     1     -40.930  31.091   3.715  0.00  0.00    +0.000 A 
ATOM      6  C   UNL     1     -42.127  31.224   4.398  0.00  0.00    +0.000 A 
ENDROOT
BRANCH   2   8
ATOM      7  N   UNL     1     -38.727  29.711   7.737  0.00  0.00    +0.000 NA
ATOM      8  C   UNL     1     -38.955  29.199   6.360  0.00  0.00    +0.000 C 
ATOM      9  C   UNL     1     -39.273  27.685   6.364  0.00  0.00    +0.000 C 
ATOM     10  C   UNL     1     -38.209  26.881   7.098  0.00  0.00    +0.000 C 
ATOM     11  C   UNL     1     -38.004  27.448   8.495  0.00  0.00    +0.000 C 
ATOM     12  C   UNL     1     -37.681  28.939   8.433  0.00  0.00    +0.000 C 
ATOM     13  C   UNL     1     -38.342  31.128   7.739  0.00  0.00    +0.000 C 
ENDBRANCH   2   8
BRANCH   6  15
ATOM     14  N   UNL     1     -44.993  31.922   2.119  0.00  0.00    +0.000 NA
ATOM     15  C   UNL     1     -43.253  31.901   3.797  0.00  0.00    +0.000 A 
ATOM     16  C   UNL     1     -43.686  33.133   4.273  0.00  0.00    +0.000 A 
ATOM     17  C   UNL     1     -43.934  31.343   2.728  0.00  0.00    +0.000 A 
ATOM     18  C   UNL     1     -44.773  33.761   3.673  0.00  0.00    +0.000 A 
ATOM     19  C   UNL     1     -45.387  33.120   2.610  0.00  0.00    +0.000 A 
ENDBRANCH   6  15
TORSDOF 2
ENDMDL
