MODEL        3
REMARK  Name = 161313
REMARK  3 active torsions:
REMARK  status: ('A' for Active; 'I' for Inactive)
REMARK    1  A    between atoms: N_1  and  C_10
REMARK    2  A    between atoms: C_4  and  C_9
REMARK    3  A    between atoms: C_14  and  C_15
REMARK                            x       y       z     vdW  Elec       q    Type
REMARK                         _______ _______ _______ _____ _____    ______ ____
ROOT
ATOM      1  N   UNL     1     -14.202 -10.766  -4.310  0.00  0.00    +0.000 NA
ATOM      2  C   UNL     1     -15.128  -9.662  -6.238  0.00  0.00    +0.000 A 
ATOM      3  C   UNL     1     -15.161 -10.857  -6.934  0.00  0.00    +0.000 A 
ATOM      4  C   UNL     1     -14.647  -9.658  -4.945  0.00  0.00    +0.000 A 
ATOM      5  C   UNL     1     -14.711 -12.018  -6.314  0.00  0.00    +0.000 A 
ATOM      6  C   UNL     1     -14.246 -11.920  -5.013  0.00  0.00    +0.000 A 
ENDROOT
BRANCH   2   8
ATOM      7  N   UNL     1     -14.857  -7.171  -6.440  0.00  0.00    +0.000 NA
ATOM      8  C   UNL     1     -15.615  -8.368  -6.891  0.00  0.00    +0.000 C 
ATOM      9  C   UNL     1     -15.548  -8.535  -8.428  0.00  0.00    +0.000 C 
ATOM     10  C   UNL     1     -15.992  -7.275  -9.158  0.00  0.00    +0.000 C 
ATOM     11  C   UNL     1     -15.198  -6.079  -8.656  0.00  0.00    +0.000 C 
ATOM     12  C   UNL     1     -15.308  -5.953  -7.139  0.00  0.00    +0.000 C 
ATOM     13  C   UNL     1     -14.983  -6.954  -4.993  0.00  0.00    +0.000 C 
ENDBRANCH   2   8
BRANCH   6  15
ATOM     14  N   UNL     1     -13.031 -15.386  -4.380  0.00  0.00    +0.000 NA
ATOM     15  C   UNL     1     -13.764 -13.083  -4.306  0.00  0.00    +0.000 A 
ATOM     16  C   UNL     1     -13.569 -13.057  -2.931  0.00  0.00    +0.000 A 
ATOM     17  C   UNL     1     -13.483 -14.261  -4.979  0.00  0.00    +0.000 A 
ATOM     18  C   UNL     1     -13.105 -14.195  -2.278  0.00  0.00    +0.000 A 
ATOM     19  C   UNL     1     -12.853 -15.323  -3.041  0.00  0.00    +0.000 A 
ENDBRANCH   6  15
TORSDOF 2
ENDMDL
