MODEL        3
REMARK  Name = 161313
REMARK  3 active torsions:
REMARK  status: ('A' for Active; 'I' for Inactive)
REMARK    1  A    between atoms: N_1  and  C_10
REMARK    2  A    between atoms: C_4  and  C_9
REMARK    3  A    between atoms: C_14  and  C_15
REMARK                            x       y       z     vdW  Elec       q    Type
REMARK                         _______ _______ _______ _____ _____    ______ ____
ROOT
ATOM      1  N   UNL     1      13.973  19.096  18.731  0.00  0.00    +0.000 NA
ATOM      2  C   UNL     1      15.232  19.520  20.737  0.00  0.00    +0.000 A 
ATOM      3  C   UNL     1      15.222  18.174  21.055  0.00  0.00    +0.000 A 
ATOM      4  C   UNL     1      14.604  19.936  19.582  0.00  0.00    +0.000 A 
ATOM      5  C   UNL     1      14.583  17.278  20.203  0.00  0.00    +0.000 A 
ATOM      6  C   UNL     1      13.979  17.786  19.065  0.00  0.00    +0.000 A 
ENDROOT
BRANCH   2   8
ATOM      7  N   UNL     1      15.082  20.942  22.804  0.00  0.00    +0.000 NA
ATOM      8  C   UNL     1      15.926  20.530  21.652  0.00  0.00    +0.000 C 
ATOM      9  C   UNL     1      17.271  19.927  22.123  0.00  0.00    +0.000 C 
ATOM     10  C   UNL     1      18.016  20.863  23.064  0.00  0.00    +0.000 C 
ATOM     11  C   UNL     1      17.111  21.264  24.218  0.00  0.00    +0.000 C 
ATOM     12  C   UNL     1      15.806  21.863  23.700  0.00  0.00    +0.000 C 
ATOM     13  C   UNL     1      13.839  21.592  22.370  0.00  0.00    +0.000 C 
ENDBRANCH   2   8
BRANCH   6  15
ATOM     14  N   UNL     1      12.704  14.670  17.466  0.00  0.00    +0.000 NA
ATOM     15  C   UNL     1      13.297  16.916  18.135  0.00  0.00    +0.000 A 
ATOM     16  C   UNL     1      12.602  17.432  17.048  0.00  0.00    +0.000 A 
ATOM     17  C   UNL     1      13.318  15.540  18.298  0.00  0.00    +0.000 A 
ATOM     18  C   UNL     1      11.956  16.568  16.169  0.00  0.00    +0.000 A 
ATOM     19  C   UNL     1      12.036  15.209  16.420  0.00  0.00    +0.000 A 
ENDBRANCH   6  15
TORSDOF 2
ENDMDL
