MODEL        3
REMARK  Name = 161313
REMARK  3 active torsions:
REMARK  status: ('A' for Active; 'I' for Inactive)
REMARK    1  A    between atoms: N_1  and  C_10
REMARK    2  A    between atoms: C_4  and  C_9
REMARK    3  A    between atoms: C_14  and  C_15
REMARK                            x       y       z     vdW  Elec       q    Type
REMARK                         _______ _______ _______ _____ _____    ______ ____
ROOT
ATOM      1  N   UNL     1      -0.209  57.567 -24.643  0.00  0.00    +0.000 NA
ATOM      2  C   UNL     1      -0.440  57.954 -27.007  0.00  0.00    +0.000 A 
ATOM      3  C   UNL     1      -1.275  56.858 -27.128  0.00  0.00    +0.000 A 
ATOM      4  C   UNL     1       0.066  58.272 -25.764  0.00  0.00    +0.000 A 
ATOM      5  C   UNL     1      -1.582  56.108 -25.997  0.00  0.00    +0.000 A 
ATOM      6  C   UNL     1      -1.028  56.501 -24.789  0.00  0.00    +0.000 A 
ENDROOT
BRANCH   2   8
ATOM      7  N   UNL     1      -0.735  58.315 -29.477  0.00  0.00    +0.000 NA
ATOM      8  C   UNL     1      -0.083  58.798 -28.231  0.00  0.00    +0.000 C 
ATOM      9  C   UNL     1      -0.446  60.273 -27.937  0.00  0.00    +0.000 C 
ATOM     10  C   UNL     1      -0.145  61.181 -29.122  0.00  0.00    +0.000 C 
ATOM     11  C   UNL     1      -0.823  60.641 -30.372  0.00  0.00    +0.000 C 
ATOM     12  C   UNL     1      -0.423  59.190 -30.622  0.00  0.00    +0.000 C 
ATOM     13  C   UNL     1      -0.332  56.944 -29.812  0.00  0.00    +0.000 C 
ENDBRANCH   2   8
BRANCH   6  15
ATOM     14  N   UNL     1      -1.188  55.663 -21.161  0.00  0.00    +0.000 NA
ATOM     15  C   UNL     1      -1.303  55.772 -23.573  0.00  0.00    +0.000 A 
ATOM     16  C   UNL     1      -1.917  54.526 -23.608  0.00  0.00    +0.000 A 
ATOM     17  C   UNL     1      -0.961  56.292 -22.336  0.00  0.00    +0.000 A 
ATOM     18  C   UNL     1      -2.168  53.847 -22.420  0.00  0.00    +0.000 A 
ATOM     19  C   UNL     1      -1.788  54.453 -21.234  0.00  0.00    +0.000 A 
ENDBRANCH   6  15
TORSDOF 2
ENDMDL
