MODEL        3
REMARK  Name = 161313
REMARK  3 active torsions:
REMARK  status: ('A' for Active; 'I' for Inactive)
REMARK    1  A    between atoms: N_1  and  C_10
REMARK    2  A    between atoms: C_4  and  C_9
REMARK    3  A    between atoms: C_14  and  C_15
REMARK                            x       y       z     vdW  Elec       q    Type
REMARK                         _______ _______ _______ _____ _____    ______ ____
ROOT
ATOM      1  N   UNL     1     -47.484  36.884 -10.182  0.00  0.00    +0.000 NA
ATOM      2  C   UNL     1     -45.805  36.971  -8.461  0.00  0.00    +0.000 A 
ATOM      3  C   UNL     1     -46.324  35.836  -7.865  0.00  0.00    +0.000 A 
ATOM      4  C   UNL     1     -46.405  37.458  -9.603  0.00  0.00    +0.000 A 
ATOM      5  C   UNL     1     -47.434  35.217  -8.432  0.00  0.00    +0.000 A 
ATOM      6  C   UNL     1     -47.971  35.776  -9.580  0.00  0.00    +0.000 A 
ENDROOT
BRANCH   2   8
ATOM      7  N   UNL     1     -43.443  36.754  -7.629  0.00  0.00    +0.000 NA
ATOM      8  C   UNL     1     -44.586  37.675  -7.862  0.00  0.00    +0.000 C 
ATOM      9  C   UNL     1     -44.188  38.848  -8.789  0.00  0.00    +0.000 C 
ATOM     10  C   UNL     1     -42.960  39.588  -8.277  0.00  0.00    +0.000 C 
ATOM     11  C   UNL     1     -41.824  38.605  -8.043  0.00  0.00    +0.000 C 
ATOM     12  C   UNL     1     -42.265  37.477  -7.114  0.00  0.00    +0.000 C 
ATOM     13  C   UNL     1     -43.784  35.683  -6.683  0.00  0.00    +0.000 C 
ENDBRANCH   2   8
BRANCH   6  15
ATOM     14  N   UNL     1     -51.513  34.829 -10.252  0.00  0.00    +0.000 NA
ATOM     15  C   UNL     1     -49.122  35.187 -10.224  0.00  0.00    +0.000 A 
ATOM     16  C   UNL     1     -48.988  34.436 -11.386  0.00  0.00    +0.000 A 
ATOM     17  C   UNL     1     -50.394  35.352  -9.701  0.00  0.00    +0.000 A 
ATOM     18  C   UNL     1     -50.116  33.881 -11.982  0.00  0.00    +0.000 A 
ATOM     19  C   UNL     1     -51.344  34.105 -11.382  0.00  0.00    +0.000 A 
ENDBRANCH   6  15
TORSDOF 2
ENDMDL
