MODEL        3
REMARK  Name = 161313
REMARK  3 active torsions:
REMARK  status: ('A' for Active; 'I' for Inactive)
REMARK    1  A    between atoms: N_1  and  C_10
REMARK    2  A    between atoms: C_4  and  C_9
REMARK    3  A    between atoms: C_14  and  C_15
REMARK                            x       y       z     vdW  Elec       q    Type
REMARK                         _______ _______ _______ _____ _____    ______ ____
ROOT
ATOM      1  N   UNL     1     -24.853-112.127 197.196  0.00  0.00    +0.000 NA
ATOM      2  C   UNL     1     -25.930-110.275 198.291  0.00  0.00    +0.000 A 
ATOM      3  C   UNL     1     -24.729-109.593 198.368  0.00  0.00    +0.000 A 
ATOM      4  C   UNL     1     -25.951-111.523 197.705  0.00  0.00    +0.000 A 
ATOM      5  C   UNL     1     -23.578-110.182 197.854  0.00  0.00    +0.000 A 
ATOM      6  C   UNL     1     -23.693-111.439 197.283  0.00  0.00    +0.000 A 
ENDROOT
BRANCH   2   8
ATOM      7  N   UNL     1     -27.472-110.032 200.262  0.00  0.00    +0.000 NA
ATOM      8  C   UNL     1     -27.213-109.655 198.847  0.00  0.00    +0.000 C 
ATOM      9  C   UNL     1     -27.134-108.120 198.675  0.00  0.00    +0.000 C 
ATOM     10  C   UNL     1     -28.367-107.420 199.231  0.00  0.00    +0.000 C 
ATOM     11  C   UNL     1     -28.597-107.844 200.673  0.00  0.00    +0.000 C 
ATOM     12  C   UNL     1     -28.679-109.364 200.785  0.00  0.00    +0.000 C 
ATOM     13  C   UNL     1     -27.632-111.482 200.424  0.00  0.00    +0.000 C 
ENDBRANCH   2   8
BRANCH   6  15
ATOM     14  N   UNL     1     -20.157-112.130 196.330  0.00  0.00    +0.000 NA
ATOM     15  C   UNL     1     -22.541-112.111 196.729  0.00  0.00    +0.000 A 
ATOM     16  C   UNL     1     -22.668-113.333 196.080  0.00  0.00    +0.000 A 
ATOM     17  C   UNL     1     -21.276-111.556 196.827  0.00  0.00    +0.000 A 
ATOM     18  C   UNL     1     -21.539-113.955 195.555  0.00  0.00    +0.000 A 
ATOM     19  C   UNL     1     -20.319-113.319 195.706  0.00  0.00    +0.000 A 
ENDBRANCH   6  15
TORSDOF 2
ENDMDL
