MODEL        3
REMARK  Name = 161313
REMARK  3 active torsions:
REMARK  status: ('A' for Active; 'I' for Inactive)
REMARK    1  A    between atoms: N_1  and  C_10
REMARK    2  A    between atoms: C_4  and  C_9
REMARK    3  A    between atoms: C_14  and  C_15
REMARK                            x       y       z     vdW  Elec       q    Type
REMARK                         _______ _______ _______ _____ _____    ______ ____
ROOT
ATOM      1  N   UNL     1     151.039 172.048 141.597  0.00  0.00    +0.000 NA
ATOM      2  C   UNL     1     149.018 172.103 142.902  0.00  0.00    +0.000 A 
ATOM      3  C   UNL     1     149.749 172.233 144.069  0.00  0.00    +0.000 A 
ATOM      4  C   UNL     1     149.691 172.015 141.702  0.00  0.00    +0.000 A 
ATOM      5  C   UNL     1     151.138 172.271 144.002  0.00  0.00    +0.000 A 
ATOM      6  C   UNL     1     151.728 172.176 142.753  0.00  0.00    +0.000 A 
ENDROOT
BRANCH   2   8
ATOM      7  N   UNL     1     146.965 170.838 143.611  0.00  0.00    +0.000 NA
ATOM      8  C   UNL     1     147.490 172.057 142.942  0.00  0.00    +0.000 C 
ATOM      9  C   UNL     1     146.975 173.345 143.628  0.00  0.00    +0.000 C 
ATOM     10  C   UNL     1     145.456 173.366 143.733  0.00  0.00    +0.000 C 
ATOM     11  C   UNL     1     144.967 172.096 144.413  0.00  0.00    +0.000 C 
ATOM     12  C   UNL     1     145.492 170.858 143.690  0.00  0.00    +0.000 C 
ATOM     13  C   UNL     1     147.378 169.610 142.918  0.00  0.00    +0.000 C 
ENDBRANCH   2   8
BRANCH   6  15
ATOM     14  N   UNL     1     155.105 171.858 141.207  0.00  0.00    +0.000 NA
ATOM     15  C   UNL     1     153.165 172.210 142.606  0.00  0.00    +0.000 A 
ATOM     16  C   UNL     1     153.984 172.602 143.658  0.00  0.00    +0.000 A 
ATOM     17  C   UNL     1     153.769 171.851 141.412  0.00  0.00    +0.000 A 
ATOM     18  C   UNL     1     155.365 172.623 143.486  0.00  0.00    +0.000 A 
ATOM     19  C   UNL     1     155.870 172.246 142.253  0.00  0.00    +0.000 A 
ENDBRANCH   6  15
TORSDOF 2
ENDMDL
