MODEL        3
REMARK  Name = 161313
REMARK  3 active torsions:
REMARK  status: ('A' for Active; 'I' for Inactive)
REMARK    1  A    between atoms: N_1  and  C_10
REMARK    2  A    between atoms: C_4  and  C_9
REMARK    3  A    between atoms: C_14  and  C_15
REMARK                            x       y       z     vdW  Elec       q    Type
REMARK                         _______ _______ _______ _____ _____    ______ ____
ROOT
ATOM      1  N   UNL     1      31.362  84.613  25.916  0.00  0.00    +0.000 NA
ATOM      2  C   UNL     1      30.436  86.603  24.931  0.00  0.00    +0.000 A 
ATOM      3  C   UNL     1      29.229  86.386  25.570  0.00  0.00    +0.000 A 
ATOM      4  C   UNL     1      31.465  85.705  25.127  0.00  0.00    +0.000 A 
ATOM      5  C   UNL     1      29.085  85.272  26.391  0.00  0.00    +0.000 A 
ATOM      6  C   UNL     1      30.172  84.424  26.529  0.00  0.00    +0.000 A 
ENDROOT
BRANCH   2   8
ATOM      7  N   UNL     1      32.038  88.281  23.961  0.00  0.00    +0.000 NA
ATOM      8  C   UNL     1      30.626  87.818  24.022  0.00  0.00    +0.000 C 
ATOM      9  C   UNL     1      30.083  87.473  22.615  0.00  0.00    +0.000 C 
ATOM     10  C   UNL     1      30.260  88.626  21.637  0.00  0.00    +0.000 C 
ATOM     11  C   UNL     1      31.714  89.070  21.618  0.00  0.00    +0.000 C 
ATOM     12  C   UNL     1      32.195  89.410  23.026  0.00  0.00    +0.000 C 
ATOM     13  C   UNL     1      32.538  88.692  25.279  0.00  0.00    +0.000 C 
ENDBRANCH   2   8
BRANCH   6  15
ATOM     14  N   UNL     1      30.162  82.286  29.582  0.00  0.00    +0.000 NA
ATOM     15  C   UNL     1      30.095  83.249  27.366  0.00  0.00    +0.000 A 
ATOM     16  C   UNL     1      29.894  81.989  26.815  0.00  0.00    +0.000 A 
ATOM     17  C   UNL     1      30.222  83.343  28.742  0.00  0.00    +0.000 A 
ATOM     18  C   UNL     1      29.826  80.876  27.647  0.00  0.00    +0.000 A 
ATOM     19  C   UNL     1      29.964  81.076  29.011  0.00  0.00    +0.000 A 
ENDBRANCH   6  15
TORSDOF 2
ENDMDL
