MODEL        3
REMARK  Name = 161313
REMARK  3 active torsions:
REMARK  status: ('A' for Active; 'I' for Inactive)
REMARK    1  A    between atoms: N_1  and  C_10
REMARK    2  A    between atoms: C_4  and  C_9
REMARK    3  A    between atoms: C_14  and  C_15
REMARK                            x       y       z     vdW  Elec       q    Type
REMARK                         _______ _______ _______ _____ _____    ______ ____
ROOT
ATOM      1  N   UNL     1      36.342  -9.789 -10.135  0.00  0.00    +0.000 NA
ATOM      2  C   UNL     1      36.271 -11.903  -8.987  0.00  0.00    +0.000 A 
ATOM      3  C   UNL     1      36.068 -12.570 -10.182  0.00  0.00    +0.000 A 
ATOM      4  C   UNL     1      36.402 -10.530  -9.006  0.00  0.00    +0.000 A 
ATOM      5  C   UNL     1      36.001 -11.842 -11.365  0.00  0.00    +0.000 A 
ATOM      6  C   UNL     1      36.143 -10.466 -11.288  0.00  0.00    +0.000 A 
ENDROOT
BRANCH   2   8
ATOM      7  N   UNL     1      37.594 -12.393  -6.907  0.00  0.00    +0.000 NA
ATOM      8  C   UNL     1      36.349 -12.674  -7.669  0.00  0.00    +0.000 C 
ATOM      9  C   UNL     1      35.088 -12.353  -6.833  0.00  0.00    +0.000 C 
ATOM     10  C   UNL     1      35.100 -13.064  -5.487  0.00  0.00    +0.000 C 
ATOM     11  C   UNL     1      36.394 -12.755  -4.750  0.00  0.00    +0.000 C 
ATOM     12  C   UNL     1      37.605 -13.102  -5.613  0.00  0.00    +0.000 C 
ATOM     13  C   UNL     1      38.797 -12.773  -7.658  0.00  0.00    +0.000 C 
ENDBRANCH   2   8
BRANCH   6  15
ATOM     14  N   UNL     1      34.758  -8.651 -14.234  0.00  0.00    +0.000 NA
ATOM     15  C   UNL     1      36.086  -9.646 -12.476  0.00  0.00    +0.000 A 
ATOM     16  C   UNL     1      37.235  -9.074 -13.008  0.00  0.00    +0.000 A 
ATOM     17  C   UNL     1      34.883  -9.406 -13.120  0.00  0.00    +0.000 A 
ATOM     18  C   UNL     1      37.147  -8.289 -14.154  0.00  0.00    +0.000 A 
ATOM     19  C   UNL     1      35.898  -8.109 -14.723  0.00  0.00    +0.000 A 
ENDBRANCH   6  15
TORSDOF 2
ENDMDL
