MODEL        3
REMARK  Name = 161313
REMARK  3 active torsions:
REMARK  status: ('A' for Active; 'I' for Inactive)
REMARK    1  A    between atoms: N_1  and  C_10
REMARK    2  A    between atoms: C_4  and  C_9
REMARK    3  A    between atoms: C_14  and  C_15
REMARK                            x       y       z     vdW  Elec       q    Type
REMARK                         _______ _______ _______ _____ _____    ______ ____
ROOT
ATOM      1  N   UNL     1      31.073  37.913  16.236  0.00  0.00    +0.000 NA
ATOM      2  C   UNL     1      32.246  36.486  14.694  0.00  0.00    +0.000 A 
ATOM      3  C   UNL     1      31.104  36.340  13.925  0.00  0.00    +0.000 A 
ATOM      4  C   UNL     1      32.190  37.270  15.826  0.00  0.00    +0.000 A 
ATOM      5  C   UNL     1      29.935  36.987  14.315  0.00  0.00    +0.000 A 
ATOM      6  C   UNL     1      29.973  37.754  15.467  0.00  0.00    +0.000 A 
ENDROOT
BRANCH   2   8
ATOM      7  N   UNL     1      34.739  36.665  14.430  0.00  0.00    +0.000 NA
ATOM      8  C   UNL     1      33.546  35.788  14.293  0.00  0.00    +0.000 C 
ATOM      9  C   UNL     1      33.693  34.497  15.132  0.00  0.00    +0.000 C 
ATOM     10  C   UNL     1      34.982  33.753  14.812  0.00  0.00    +0.000 C 
ATOM     11  C   UNL     1      36.170  34.691  14.956  0.00  0.00    +0.000 C 
ATOM     12  C   UNL     1      35.981  35.940  14.099  0.00  0.00    +0.000 C 
ATOM     13  C   UNL     1      34.649  37.853  13.573  0.00  0.00    +0.000 C 
ENDBRANCH   2   8
BRANCH   6  15
ATOM     14  N   UNL     1      27.167  38.816  17.679  0.00  0.00    +0.000 NA
ATOM     15  C   UNL     1      28.798  38.455  15.931  0.00  0.00    +0.000 A 
ATOM     16  C   UNL     1      28.168  39.404  15.136  0.00  0.00    +0.000 A 
ATOM     17  C   UNL     1      28.263  38.199  17.183  0.00  0.00    +0.000 A 
ATOM     18  C   UNL     1      27.037  40.061  15.611  0.00  0.00    +0.000 A 
ATOM     19  C   UNL     1      26.581  39.735  16.877  0.00  0.00    +0.000 A 
ENDBRANCH   6  15
TORSDOF 2
ENDMDL
