MODEL        3
REMARK  Name = 161313
REMARK  3 active torsions:
REMARK  status: ('A' for Active; 'I' for Inactive)
REMARK    1  A    between atoms: N_1  and  C_10
REMARK    2  A    between atoms: C_4  and  C_9
REMARK    3  A    between atoms: C_14  and  C_15
REMARK                            x       y       z     vdW  Elec       q    Type
REMARK                         _______ _______ _______ _____ _____    ______ ____
ROOT
ATOM      1  N   UNL     1      31.910  -7.518   6.064  0.00  0.00    +0.000 NA
ATOM      2  C   UNL     1      30.286  -9.216   6.586  0.00  0.00    +0.000 A 
ATOM      3  C   UNL     1      30.838 -10.066   5.645  0.00  0.00    +0.000 A 
ATOM      4  C   UNL     1      30.844  -7.967   6.764  0.00  0.00    +0.000 A 
ATOM      5  C   UNL     1      31.936  -9.640   4.905  0.00  0.00    +0.000 A 
ATOM      6  C   UNL     1      32.430  -8.369   5.151  0.00  0.00    +0.000 A 
ENDROOT
BRANCH   2   8
ATOM      7  N   UNL     1      29.411  -9.885   8.846  0.00  0.00    +0.000 NA
ATOM      8  C   UNL     1      29.078  -9.654   7.416  0.00  0.00    +0.000 C 
ATOM      9  C   UNL     1      27.961  -8.595   7.259  0.00  0.00    +0.000 C 
ATOM     10  C   UNL     1      26.726  -8.944   8.078  0.00  0.00    +0.000 C 
ATOM     11  C   UNL     1      27.119  -9.182   9.529  0.00  0.00    +0.000 C 
ATOM     12  C   UNL     1      28.213 -10.242   9.628  0.00  0.00    +0.000 C 
ATOM     13  C   UNL     1      30.411 -10.948   9.012  0.00  0.00    +0.000 C 
ENDBRANCH   2   8
BRANCH   6  15
ATOM     14  N   UNL     1      34.636  -6.008   3.293  0.00  0.00    +0.000 NA
ATOM     15  C   UNL     1      33.568  -7.860   4.421  0.00  0.00    +0.000 A 
ATOM     16  C   UNL     1      34.660  -8.672   4.139  0.00  0.00    +0.000 A 
ATOM     17  C   UNL     1      33.604  -6.548   3.980  0.00  0.00    +0.000 A 
ATOM     18  C   UNL     1      35.741  -8.153   3.434  0.00  0.00    +0.000 A 
ATOM     19  C   UNL     1      35.681  -6.828   3.037  0.00  0.00    +0.000 A 
ENDBRANCH   6  15
TORSDOF 2
ENDMDL
