MODEL        3
REMARK  Name = 161313
REMARK  3 active torsions:
REMARK  status: ('A' for Active; 'I' for Inactive)
REMARK    1  A    between atoms: N_1  and  C_10
REMARK    2  A    between atoms: C_4  and  C_9
REMARK    3  A    between atoms: C_14  and  C_15
REMARK                            x       y       z     vdW  Elec       q    Type
REMARK                         _______ _______ _______ _____ _____    ______ ____
ROOT
ATOM      1  N   UNL     1     -12.192  14.687 -41.366  0.00  0.00    +0.000 NA
ATOM      2  C   UNL     1     -13.269  12.733 -40.464  0.00  0.00    +0.000 A 
ATOM      3  C   UNL     1     -13.691  13.449 -39.358  0.00  0.00    +0.000 A 
ATOM      4  C   UNL     1     -12.531  13.380 -41.433  0.00  0.00    +0.000 A 
ATOM      5  C   UNL     1     -13.361  14.796 -39.253  0.00  0.00    +0.000 A 
ATOM      6  C   UNL     1     -12.617  15.363 -40.275  0.00  0.00    +0.000 A 
ENDROOT
BRANCH   2   8
ATOM      7  N   UNL     1     -12.471  10.356 -40.290  0.00  0.00    +0.000 NA
ATOM      8  C   UNL     1     -13.615  11.251 -40.609  0.00  0.00    +0.000 C 
ATOM      9  C   UNL     1     -14.841  10.940 -39.719  0.00  0.00    +0.000 C 
ATOM     10  C   UNL     1     -15.236   9.471 -39.785  0.00  0.00    +0.000 C 
ATOM     11  C   UNL     1     -14.034   8.598 -39.463  0.00  0.00    +0.000 C 
ATOM     12  C   UNL     1     -12.858   8.935 -40.376  0.00  0.00    +0.000 C 
ATOM     13  C   UNL     1     -11.329  10.584 -41.185  0.00  0.00    +0.000 C 
ENDBRANCH   2   8
BRANCH   6  15
ATOM     14  N   UNL     1     -12.236  18.925 -41.301  0.00  0.00    +0.000 NA
ATOM     15  C   UNL     1     -12.239  16.756 -40.234  0.00  0.00    +0.000 A 
ATOM     16  C   UNL     1     -11.541  17.278 -39.152  0.00  0.00    +0.000 A 
ATOM     17  C   UNL     1     -12.560  17.613 -41.274  0.00  0.00    +0.000 A 
ATOM     18  C   UNL     1     -11.190  18.625 -39.142  0.00  0.00    +0.000 A 
ATOM     19  C   UNL     1     -11.558  19.398 -40.230  0.00  0.00    +0.000 A 
ENDBRANCH   6  15
TORSDOF 2
ENDMDL
