MODEL        3
REMARK  Name = 161313
REMARK  3 active torsions:
REMARK  status: ('A' for Active; 'I' for Inactive)
REMARK    1  A    between atoms: N_1  and  C_10
REMARK    2  A    between atoms: C_4  and  C_9
REMARK    3  A    between atoms: C_14  and  C_15
REMARK                            x       y       z     vdW  Elec       q    Type
REMARK                         _______ _______ _______ _____ _____    ______ ____
ROOT
ATOM      1  N   UNL     1     -29.590  -4.570 -12.678  0.00  0.00    +0.000 NA
ATOM      2  C   UNL     1     -29.576  -6.918 -13.208  0.00  0.00    +0.000 A 
ATOM      3  C   UNL     1     -30.522  -7.167 -12.230  0.00  0.00    +0.000 A 
ATOM      4  C   UNL     1     -29.141  -5.623 -13.399  0.00  0.00    +0.000 A 
ATOM      5  C   UNL     1     -31.008  -6.110 -11.468  0.00  0.00    +0.000 A 
ATOM      6  C   UNL     1     -30.514  -4.842 -11.729  0.00  0.00    +0.000 A 
ENDROOT
BRANCH   2   8
ATOM      7  N   UNL     1     -29.478  -7.997 -15.476  0.00  0.00    +0.000 NA
ATOM      8  C   UNL     1     -29.022  -8.058 -14.063  0.00  0.00    +0.000 C 
ATOM      9  C   UNL     1     -27.478  -8.045 -13.964  0.00  0.00    +0.000 C 
ATOM     10  C   UNL     1     -26.843  -9.139 -14.812  0.00  0.00    +0.000 C 
ATOM     11  C   UNL     1     -27.347  -9.041 -16.244  0.00  0.00    +0.000 C 
ATOM     12  C   UNL     1     -28.873  -9.072 -16.285  0.00  0.00    +0.000 C 
ATOM     13  C   UNL     1     -30.939  -8.094 -15.588  0.00  0.00    +0.000 C 
ENDBRANCH   2   8
BRANCH   6  15
ATOM     14  N   UNL     1     -30.636  -1.398 -10.310  0.00  0.00    +0.000 NA
ATOM     15  C   UNL     1     -30.973  -3.696 -10.979  0.00  0.00    +0.000 A 
ATOM     16  C   UNL     1     -32.138  -3.754 -10.223  0.00  0.00    +0.000 A 
ATOM     17  C   UNL     1     -30.264  -2.506 -10.989  0.00  0.00    +0.000 A 
ATOM     18  C   UNL     1     -32.553  -2.634  -9.510  0.00  0.00    +0.000 A 
ATOM     19  C   UNL     1     -31.775  -1.491  -9.586  0.00  0.00    +0.000 A 
ENDBRANCH   6  15
TORSDOF 2
ENDMDL
