MODEL        3
REMARK  Name = 161313
REMARK  3 active torsions:
REMARK  status: ('A' for Active; 'I' for Inactive)
REMARK    1  A    between atoms: N_1  and  C_10
REMARK    2  A    between atoms: C_4  and  C_9
REMARK    3  A    between atoms: C_14  and  C_15
REMARK                            x       y       z     vdW  Elec       q    Type
REMARK                         _______ _______ _______ _____ _____    ______ ____
ROOT
ATOM      1  N   UNL     1      27.451   5.562  56.750  0.00  0.00    +0.000 NA
ATOM      2  C   UNL     1      27.925   5.666  59.107  0.00  0.00    +0.000 A 
ATOM      3  C   UNL     1      29.134   5.022  58.915  0.00  0.00    +0.000 A 
ATOM      4  C   UNL     1      27.123   5.914  58.013  0.00  0.00    +0.000 A 
ATOM      5  C   UNL     1      29.508   4.644  57.629  0.00  0.00    +0.000 A 
ATOM      6  C   UNL     1      28.639   4.935  56.591  0.00  0.00    +0.000 A 
ENDROOT
BRANCH   2   8
ATOM      7  N   UNL     1      27.558   4.988  61.500  0.00  0.00    +0.000 NA
ATOM      8  C   UNL     1      27.486   6.094  60.508  0.00  0.00    +0.000 C 
ATOM      9  C   UNL     1      28.342   7.305  60.946  0.00  0.00    +0.000 C 
ATOM     10  C   UNL     1      27.985   7.778  62.348  0.00  0.00    +0.000 C 
ATOM     11  C   UNL     1      28.063   6.613  63.323  0.00  0.00    +0.000 C 
ATOM     12  C   UNL     1      27.191   5.452  62.851  0.00  0.00    +0.000 C 
ATOM     13  C   UNL     1      26.683   3.866  61.137  0.00  0.00    +0.000 C 
ENDBRANCH   2   8
BRANCH   6  15
ATOM     14  N   UNL     1      30.565   3.686  53.655  0.00  0.00    +0.000 NA
ATOM     15  C   UNL     1      28.960   4.574  55.230  0.00  0.00    +0.000 A 
ATOM     16  C   UNL     1      28.039   4.748  54.205  0.00  0.00    +0.000 A 
ATOM     17  C   UNL     1      30.199   4.044  54.906  0.00  0.00    +0.000 A 
ATOM     18  C   UNL     1      28.378   4.391  52.903  0.00  0.00    +0.000 A 
ATOM     19  C   UNL     1      29.642   3.869  52.683  0.00  0.00    +0.000 A 
ENDBRANCH   6  15
TORSDOF 2
ENDMDL
