MODEL        3
REMARK  Name = 161313
REMARK  3 active torsions:
REMARK  status: ('A' for Active; 'I' for Inactive)
REMARK    1  A    between atoms: N_1  and  C_10
REMARK    2  A    between atoms: C_4  and  C_9
REMARK    3  A    between atoms: C_14  and  C_15
REMARK                            x       y       z     vdW  Elec       q    Type
REMARK                         _______ _______ _______ _____ _____    ______ ____
ROOT
ATOM      1  N   UNL     1      21.815  34.833  15.215  0.00  0.00    +0.000 NA
ATOM      2  C   UNL     1      24.167  34.843  15.726  0.00  0.00    +0.000 A 
ATOM      3  C   UNL     1      24.384  35.861  14.814  0.00  0.00    +0.000 A 
ATOM      4  C   UNL     1      22.885  34.363  15.895  0.00  0.00    +0.000 A 
ATOM      5  C   UNL     1      23.308  36.371  14.095  0.00  0.00    +0.000 A 
ATOM      6  C   UNL     1      22.055  35.828  14.330  0.00  0.00    +0.000 A 
ENDROOT
BRANCH   2   8
ATOM      7  N   UNL     1      25.292  34.652  17.966  0.00  0.00    +0.000 NA
ATOM      8  C   UNL     1      25.329  34.261  16.532  0.00  0.00    +0.000 C 
ATOM      9  C   UNL     1      25.325  32.723  16.364  0.00  0.00    +0.000 C 
ATOM     10  C   UNL     1      26.440  32.060  17.161  0.00  0.00    +0.000 C 
ATOM     11  C   UNL     1      26.367  32.498  18.616  0.00  0.00    +0.000 C 
ATOM     12  C   UNL     1      26.388  34.021  18.725  0.00  0.00    +0.000 C 
ATOM     13  C   UNL     1      25.380  36.108  18.141  0.00  0.00    +0.000 C 
ENDBRANCH   2   8
BRANCH   6  15
ATOM     14  N   UNL     1      18.569  36.975  13.681  0.00  0.00    +0.000 NA
ATOM     15  C   UNL     1      20.892  36.308  13.621  0.00  0.00    +0.000 A 
ATOM     16  C   UNL     1      20.939  36.562  12.256  0.00  0.00    +0.000 A 
ATOM     17  C   UNL     1      19.694  36.528  14.282  0.00  0.00    +0.000 A 
ATOM     18  C   UNL     1      19.801  37.023  11.601  0.00  0.00    +0.000 A 
ATOM     19  C   UNL     1      18.653  37.212  12.351  0.00  0.00    +0.000 A 
ENDBRANCH   6  15
TORSDOF 2
ENDMDL
