MODEL        3
REMARK  Name = 161313
REMARK  3 active torsions:
REMARK  status: ('A' for Active; 'I' for Inactive)
REMARK    1  A    between atoms: N_1  and  C_10
REMARK    2  A    between atoms: C_4  and  C_9
REMARK    3  A    between atoms: C_14  and  C_15
REMARK                            x       y       z     vdW  Elec       q    Type
REMARK                         _______ _______ _______ _____ _____    ______ ____
ROOT
ATOM      1  N   UNL     1      11.382  41.543  66.629  0.00  0.00    +0.000 NA
ATOM      2  C   UNL     1      12.635  41.118  68.639  0.00  0.00    +0.000 A 
ATOM      3  C   UNL     1      11.739  40.133  69.016  0.00  0.00    +0.000 A 
ATOM      4  C   UNL     1      12.424  41.792  67.454  0.00  0.00    +0.000 A 
ATOM      5  C   UNL     1      10.655  39.848  68.192  0.00  0.00    +0.000 A 
ATOM      6  C   UNL     1      10.523  40.575  67.020  0.00  0.00    +0.000 A 
ENDROOT
BRANCH   2   8
ATOM      7  N   UNL     1      13.570  42.579  70.458  0.00  0.00    +0.000 NA
ATOM      8  C   UNL     1      13.836  41.455  69.522  0.00  0.00    +0.000 C 
ATOM      9  C   UNL     1      14.266  40.177  70.280  0.00  0.00    +0.000 C 
ATOM     10  C   UNL     1      15.446  40.433  71.207  0.00  0.00    +0.000 C 
ATOM     11  C   UNL     1      15.131  41.596  72.136  0.00  0.00    +0.000 C 
ATOM     12  C   UNL     1      14.726  42.833  71.339  0.00  0.00    +0.000 C 
ATOM     13  C   UNL     1      13.243  43.821  69.747  0.00  0.00    +0.000 C 
ENDBRANCH   2   8
BRANCH   6  15
ATOM     14  N   UNL     1       8.662  39.613  63.938  0.00  0.00    +0.000 NA
ATOM     15  C   UNL     1       9.423  40.333  66.116  0.00  0.00    +0.000 A 
ATOM     16  C   UNL     1       8.110  40.570  66.505  0.00  0.00    +0.000 A 
ATOM     17  C   UNL     1       9.644  39.860  64.833  0.00  0.00    +0.000 A 
ATOM     18  C   UNL     1       7.071  40.329  65.611  0.00  0.00    +0.000 A 
ATOM     19  C   UNL     1       7.397  39.855  64.352  0.00  0.00    +0.000 A 
ENDBRANCH   6  15
TORSDOF 2
ENDMDL
