MODEL        3
REMARK  Name = 161313
REMARK  3 active torsions:
REMARK  status: ('A' for Active; 'I' for Inactive)
REMARK    1  A    between atoms: N_1  and  C_10
REMARK    2  A    between atoms: C_4  and  C_9
REMARK    3  A    between atoms: C_14  and  C_15
REMARK                            x       y       z     vdW  Elec       q    Type
REMARK                         _______ _______ _______ _____ _____    ______ ____
ROOT
ATOM      1  N   UNL     1      10.896  -0.579  15.860  0.00  0.00    +0.000 NA
ATOM      2  C   UNL     1      10.253   1.673  16.410  0.00  0.00    +0.000 A 
ATOM      3  C   UNL     1      11.024   1.637  17.557  0.00  0.00    +0.000 A 
ATOM      4  C   UNL     1      10.215   0.559  15.598  0.00  0.00    +0.000 A 
ATOM      5  C   UNL     1      11.739   0.483  17.861  0.00  0.00    +0.000 A 
ATOM      6  C   UNL     1      11.642  -0.588  16.987  0.00  0.00    +0.000 A 
ENDROOT
BRANCH   2   8
ATOM      7  N   UNL     1       8.066   2.902  16.579  0.00  0.00    +0.000 NA
ATOM      8  C   UNL     1       9.455   2.927  16.049  0.00  0.00    +0.000 C 
ATOM      9  C   UNL     1      10.230   4.168  16.551  0.00  0.00    +0.000 C 
ATOM     10  C   UNL     1       9.487   5.463  16.254  0.00  0.00    +0.000 C 
ATOM     11  C   UNL     1       8.072   5.385  16.805  0.00  0.00    +0.000 C 
ATOM     12  C   UNL     1       7.348   4.152  16.269  0.00  0.00    +0.000 C 
ATOM     13  C   UNL     1       7.294   1.774  16.042  0.00  0.00    +0.000 C 
ENDBRANCH   2   8
BRANCH   6  15
ATOM     14  N   UNL     1      14.136  -2.970  18.399  0.00  0.00    +0.000 NA
ATOM     15  C   UNL     1      12.357  -1.818  17.237  0.00  0.00    +0.000 A 
ATOM     16  C   UNL     1      11.997  -2.998  16.598  0.00  0.00    +0.000 A 
ATOM     17  C   UNL     1      13.424  -1.856  18.120  0.00  0.00    +0.000 A 
ATOM     18  C   UNL     1      12.706  -4.167  16.859  0.00  0.00    +0.000 A 
ATOM     19  C   UNL     1      13.757  -4.101  17.759  0.00  0.00    +0.000 A 
ENDBRANCH   6  15
TORSDOF 2
ENDMDL
