MODEL        3
REMARK  Name = 161313
REMARK  3 active torsions:
REMARK  status: ('A' for Active; 'I' for Inactive)
REMARK    1  A    between atoms: N_1  and  C_10
REMARK    2  A    between atoms: C_4  and  C_9
REMARK    3  A    between atoms: C_14  and  C_15
REMARK                            x       y       z     vdW  Elec       q    Type
REMARK                         _______ _______ _______ _____ _____    ______ ____
ROOT
ATOM      1  N   UNL     1       6.565   5.752  93.603  0.00  0.00    +0.000 NA
ATOM      2  C   UNL     1       7.955   4.178  92.428  0.00  0.00    +0.000 A 
ATOM      3  C   UNL     1       9.081   4.934  92.700  0.00  0.00    +0.000 A 
ATOM      4  C   UNL     1       6.731   4.615  92.891  0.00  0.00    +0.000 A 
ATOM      5  C   UNL     1       8.950   6.110  93.431  0.00  0.00    +0.000 A 
ATOM      6  C   UNL     1       7.682   6.472  93.856  0.00  0.00    +0.000 A 
ENDROOT
BRANCH   2   8
ATOM      7  N   UNL     1       9.154   2.915  90.615  0.00  0.00    +0.000 NA
ATOM      8  C   UNL     1       8.065   2.880  91.627  0.00  0.00    +0.000 C 
ATOM      9  C   UNL     1       8.247   1.703  92.615  0.00  0.00    +0.000 C 
ATOM     10  C   UNL     1       8.393   0.371  91.893  0.00  0.00    +0.000 C 
ATOM     11  C   UNL     1       9.509   0.459  90.864  0.00  0.00    +0.000 C 
ATOM     12  C   UNL     1       9.274   1.626  89.908  0.00  0.00    +0.000 C 
ATOM     13  C   UNL     1       8.947   3.976  89.621  0.00  0.00    +0.000 C 
ENDBRANCH   2   8
BRANCH   6  15
ATOM     14  N   UNL     1       6.073   8.947  96.130  0.00  0.00    +0.000 NA
ATOM     15  C   UNL     1       7.471   7.679  94.619  0.00  0.00    +0.000 A 
ATOM     16  C   UNL     1       8.400   8.712  94.600  0.00  0.00    +0.000 A 
ATOM     17  C   UNL     1       6.333   7.844  95.393  0.00  0.00    +0.000 A 
ATOM     18  C   UNL     1       8.168   9.863  95.346  0.00  0.00    +0.000 A 
ATOM     19  C   UNL     1       7.000   9.931  96.087  0.00  0.00    +0.000 A 
ENDBRANCH   6  15
TORSDOF 2
ENDMDL
