MODEL        3
REMARK  Name = 161313
REMARK  3 active torsions:
REMARK  status: ('A' for Active; 'I' for Inactive)
REMARK    1  A    between atoms: N_1  and  C_10
REMARK    2  A    between atoms: C_4  and  C_9
REMARK    3  A    between atoms: C_14  and  C_15
REMARK                            x       y       z     vdW  Elec       q    Type
REMARK                         _______ _______ _______ _____ _____    ______ ____
ROOT
ATOM      1  N   UNL     1      -0.796  16.485  20.115  0.00  0.00    +0.000 NA
ATOM      2  C   UNL     1      -0.466  14.187  19.482  0.00  0.00    +0.000 A 
ATOM      3  C   UNL     1      -0.795  13.765  20.758  0.00  0.00    +0.000 A 
ATOM      4  C   UNL     1      -0.478  15.538  19.204  0.00  0.00    +0.000 A 
ATOM      5  C   UNL     1      -1.128  14.711  21.723  0.00  0.00    +0.000 A 
ATOM      6  C   UNL     1      -1.114  16.046  21.353  0.00  0.00    +0.000 A 
ENDROOT
BRANCH   2   8
ATOM      7  N   UNL     1       1.267  12.603  18.584  0.00  0.00    +0.000 NA
ATOM      8  C   UNL     1      -0.094  13.173  18.400  0.00  0.00    +0.000 C 
ATOM      9  C   UNL     1      -1.173  12.064  18.370  0.00  0.00    +0.000 C 
ATOM     10  C   UNL     1      -0.862  10.995  17.332  0.00  0.00    +0.000 C 
ATOM     11  C   UNL     1       0.540  10.451  17.554  0.00  0.00    +0.000 C 
ATOM     12  C   UNL     1       1.566  11.582  17.562  0.00  0.00    +0.000 C 
ATOM     13  C   UNL     1       2.308  13.637  18.529  0.00  0.00    +0.000 C 
ENDBRANCH   2   8
BRANCH   6  15
ATOM     14  N   UNL     1      -0.737  18.967  23.637  0.00  0.00    +0.000 NA
ATOM     15  C   UNL     1      -1.450  17.082  22.301  0.00  0.00    +0.000 A 
ATOM     16  C   UNL     1      -2.744  17.214  22.791  0.00  0.00    +0.000 A 
ATOM     17  C   UNL     1      -0.492  17.975  22.751  0.00  0.00    +0.000 A 
ATOM     18  C   UNL     1      -3.036  18.222  23.704  0.00  0.00    +0.000 A 
ATOM     19  C   UNL     1      -2.008  19.065  24.091  0.00  0.00    +0.000 A 
ENDBRANCH   6  15
TORSDOF 2
ENDMDL
