MODEL        3
REMARK  Name = 161313
REMARK  3 active torsions:
REMARK  status: ('A' for Active; 'I' for Inactive)
REMARK    1  A    between atoms: N_1  and  C_10
REMARK    2  A    between atoms: C_4  and  C_9
REMARK    3  A    between atoms: C_14  and  C_15
REMARK                            x       y       z     vdW  Elec       q    Type
REMARK                         _______ _______ _______ _____ _____    ______ ____
ROOT
ATOM      1  N   UNL     1     -11.762 -22.835   9.102  0.00  0.00    +0.000 NA
ATOM      2  C   UNL     1     -10.955 -20.571   9.206  0.00  0.00    +0.000 A 
ATOM      3  C   UNL     1      -9.887 -20.964   9.993  0.00  0.00    +0.000 A 
ATOM      4  C   UNL     1     -11.859 -21.524   8.787  0.00  0.00    +0.000 A 
ATOM      5  C   UNL     1      -9.754 -22.305  10.338  0.00  0.00    +0.000 A 
ATOM      6  C   UNL     1     -10.709 -23.192   9.871  0.00  0.00    +0.000 A 
ENDROOT
BRANCH   2   8
ATOM      7  N   UNL     1     -10.705 -18.162   9.878  0.00  0.00    +0.000 NA
ATOM      8  C   UNL     1     -11.130 -19.104   8.810  0.00  0.00    +0.000 C 
ATOM      9  C   UNL     1     -10.358 -18.853   7.493  0.00  0.00    +0.000 C 
ATOM     10  C   UNL     1     -10.459 -17.402   7.041  0.00  0.00    +0.000 C 
ATOM     11  C   UNL     1     -10.026 -16.478   8.169  0.00  0.00    +0.000 C 
ATOM     12  C   UNL     1     -10.825 -16.759   9.438  0.00  0.00    +0.000 C 
ATOM     13  C   UNL     1     -11.490 -18.335  11.108  0.00  0.00    +0.000 C 
ENDBRANCH   2   8
BRANCH   6  15
ATOM     14  N   UNL     1     -10.353 -26.326  11.856  0.00  0.00    +0.000 NA
ATOM     15  C   UNL     1     -10.635 -24.600  10.188  0.00  0.00    +0.000 A 
ATOM     16  C   UNL     1     -10.761 -25.566   9.198  0.00  0.00    +0.000 A 
ATOM     17  C   UNL     1     -10.433 -25.028  11.490  0.00  0.00    +0.000 A 
ATOM     18  C   UNL     1     -10.684 -26.913   9.535  0.00  0.00    +0.000 A 
ATOM     19  C   UNL     1     -10.481 -27.238  10.865  0.00  0.00    +0.000 A 
ENDBRANCH   6  15
TORSDOF 2
ENDMDL
