MODEL        3
REMARK  Name = 161313
REMARK  3 active torsions:
REMARK  status: ('A' for Active; 'I' for Inactive)
REMARK    1  A    between atoms: N_1  and  C_10
REMARK    2  A    between atoms: C_4  and  C_9
REMARK    3  A    between atoms: C_14  and  C_15
REMARK                            x       y       z     vdW  Elec       q    Type
REMARK                         _______ _______ _______ _____ _____    ______ ____
ROOT
ATOM      1  N   UNL     1      19.513  12.541   0.138  0.00  0.00    +0.000 NA
ATOM      2  C   UNL     1      19.978  14.849   0.637  0.00  0.00    +0.000 A 
ATOM      3  C   UNL     1      21.242  14.520   1.092  0.00  0.00    +0.000 A 
ATOM      4  C   UNL     1      19.154  13.844   0.174  0.00  0.00    +0.000 A 
ATOM      5  C   UNL     1      21.647  13.189   1.071  0.00  0.00    +0.000 A 
ATOM      6  C   UNL     1      20.754  12.247   0.589  0.00  0.00    +0.000 A 
ENDROOT
BRANCH   2   8
ATOM      7  N   UNL     1      19.644  16.967  -0.675  0.00  0.00    +0.000 NA
ATOM      8  C   UNL     1      19.502  16.302   0.647  0.00  0.00    +0.000 C 
ATOM      9  C   UNL     1      18.038  16.340   1.145  0.00  0.00    +0.000 C 
ATOM     10  C   UNL     1      17.477  17.755   1.160  0.00  0.00    +0.000 C 
ATOM     11  C   UNL     1      17.654  18.395  -0.208  0.00  0.00    +0.000 C 
ATOM     12  C   UNL     1      19.115  18.344  -0.646  0.00  0.00    +0.000 C 
ATOM     13  C   UNL     1      21.042  17.013  -1.121  0.00  0.00    +0.000 C 
ENDBRANCH   2   8
BRANCH   6  15
ATOM     14  N   UNL     1      20.846   8.619   1.437  0.00  0.00    +0.000 NA
ATOM     15  C   UNL     1      21.106  10.847   0.537  0.00  0.00    +0.000 A 
ATOM     16  C   UNL     1      22.005  10.369  -0.410  0.00  0.00    +0.000 A 
ATOM     17  C   UNL     1      20.560   9.940   1.430  0.00  0.00    +0.000 A 
ATOM     18  C   UNL     1      22.325   9.015  -0.434  0.00  0.00    +0.000 A 
ATOM     19  C   UNL     1      21.724   8.190   0.501  0.00  0.00    +0.000 A 
ENDBRANCH   6  15
TORSDOF 2
ENDMDL
