MODEL        3
REMARK  Name = 161313
REMARK  3 active torsions:
REMARK  status: ('A' for Active; 'I' for Inactive)
REMARK    1  A    between atoms: N_1  and  C_10
REMARK    2  A    between atoms: C_4  and  C_9
REMARK    3  A    between atoms: C_14  and  C_15
REMARK                            x       y       z     vdW  Elec       q    Type
REMARK                         _______ _______ _______ _____ _____    ______ ____
ROOT
ATOM      1  N   UNL     1      22.136  -4.251   6.608  0.00  0.00    +0.000 NA
ATOM      2  C   UNL     1      23.104  -2.048   6.610  0.00  0.00    +0.000 A 
ATOM      3  C   UNL     1      23.245  -2.087   7.986  0.00  0.00    +0.000 A 
ATOM      4  C   UNL     1      22.552  -3.136   5.967  0.00  0.00    +0.000 A 
ATOM      5  C   UNL     1      22.828  -3.218   8.681  0.00  0.00    +0.000 A 
ATOM      6  C   UNL     1      22.285  -4.263   7.951  0.00  0.00    +0.000 A 
ENDROOT
BRANCH   2   8
ATOM      7  N   UNL     1      22.443   0.133   5.551  0.00  0.00    +0.000 NA
ATOM      8  C   UNL     1      23.552  -0.820   5.817  0.00  0.00    +0.000 C 
ATOM      9  C   UNL     1      24.714  -0.138   6.578  0.00  0.00    +0.000 C 
ATOM     10  C   UNL     1      25.204   1.116   5.865  0.00  0.00    +0.000 C 
ATOM     11  C   UNL     1      24.034   2.053   5.606  0.00  0.00    +0.000 C 
ATOM     12  C   UNL     1      22.924   1.335   4.843  0.00  0.00    +0.000 C 
ATOM     13  C   UNL     1      21.371  -0.479   4.756  0.00  0.00    +0.000 C 
ENDBRANCH   2   8
BRANCH   6  15
ATOM     14  N   UNL     1      22.371  -7.462   9.862  0.00  0.00    +0.000 NA
ATOM     15  C   UNL     1      21.832  -5.468   8.605  0.00  0.00    +0.000 A 
ATOM     16  C   UNL     1      20.485  -5.811   8.624  0.00  0.00    +0.000 A 
ATOM     17  C   UNL     1      22.727  -6.319   9.233  0.00  0.00    +0.000 A 
ATOM     18  C   UNL     1      20.080  -6.979   9.261  0.00  0.00    +0.000 A 
ATOM     19  C   UNL     1      21.052  -7.762   9.860  0.00  0.00    +0.000 A 
ENDBRANCH   6  15
TORSDOF 2
ENDMDL
