MODEL        3
REMARK  Name = 161313
REMARK  3 active torsions:
REMARK  status: ('A' for Active; 'I' for Inactive)
REMARK    1  A    between atoms: N_1  and  C_10
REMARK    2  A    between atoms: C_4  and  C_9
REMARK    3  A    between atoms: C_14  and  C_15
REMARK                            x       y       z     vdW  Elec       q    Type
REMARK                         _______ _______ _______ _____ _____    ______ ____
ROOT
ATOM      1  N   UNL     1      60.418  33.256  74.441  0.00  0.00    +0.000 NA
ATOM      2  C   UNL     1      60.084  32.087  76.517  0.00  0.00    +0.000 A 
ATOM      3  C   UNL     1      58.722  32.323  76.457  0.00  0.00    +0.000 A 
ATOM      4  C   UNL     1      60.888  32.563  75.503  0.00  0.00    +0.000 A 
ATOM      5  C   UNL     1      58.202  33.033  75.380  0.00  0.00    +0.000 A 
ATOM      6  C   UNL     1      59.084  33.473  74.407  0.00  0.00    +0.000 A 
ENDROOT
BRANCH   2   8
ATOM      7  N   UNL     1      61.161  32.194  78.786  0.00  0.00    +0.000 NA
ATOM      8  C   UNL     1      60.687  31.310  77.688  0.00  0.00    +0.000 C 
ATOM      9  C   UNL     1      59.642  30.289  78.195  0.00  0.00    +0.000 C 
ATOM     10  C   UNL     1      60.156  29.489  79.384  0.00  0.00    +0.000 C 
ATOM     11  C   UNL     1      60.638  30.435  80.474  0.00  0.00    +0.000 C 
ATOM     12  C   UNL     1      61.675  31.411  79.925  0.00  0.00    +0.000 C 
ATOM     13  C   UNL     1      62.215  33.112  78.336  0.00  0.00    +0.000 C 
ENDBRANCH   2   8
BRANCH   6  15
ATOM     14  N   UNL     1      58.965  34.917  70.973  0.00  0.00    +0.000 NA
ATOM     15  C   UNL     1      58.615  34.215  73.260  0.00  0.00    +0.000 A 
ATOM     16  C   UNL     1      57.420  34.922  73.303  0.00  0.00    +0.000 A 
ATOM     17  C   UNL     1      59.345  34.244  72.082  0.00  0.00    +0.000 A 
ATOM     18  C   UNL     1      56.995  35.627  72.181  0.00  0.00    +0.000 A 
ATOM     19  C   UNL     1      57.796  35.593  71.052  0.00  0.00    +0.000 A 
ENDBRANCH   6  15
TORSDOF 2
ENDMDL
