MODEL        3
REMARK  Name = 161313
REMARK  3 active torsions:
REMARK  status: ('A' for Active; 'I' for Inactive)
REMARK    1  A    between atoms: N_1  and  C_10
REMARK    2  A    between atoms: C_4  and  C_9
REMARK    3  A    between atoms: C_14  and  C_15
REMARK                            x       y       z     vdW  Elec       q    Type
REMARK                         _______ _______ _______ _____ _____    ______ ____
ROOT
ATOM      1  N   UNL     1      22.382  -2.467   7.003  0.00  0.00    +0.000 NA
ATOM      2  C   UNL     1      22.248  -1.465   4.820  0.00  0.00    +0.000 A 
ATOM      3  C   UNL     1      21.016  -0.913   5.124  0.00  0.00    +0.000 A 
ATOM      4  C   UNL     1      22.891  -2.226   5.774  0.00  0.00    +0.000 A 
ATOM      5  C   UNL     1      20.461  -1.139   6.379  0.00  0.00    +0.000 A 
ATOM      6  C   UNL     1      21.178  -1.916   7.275  0.00  0.00    +0.000 A 
ENDROOT
BRANCH   2   8
ATOM      7  N   UNL     1      22.988   0.204   3.092  0.00  0.00    +0.000 NA
ATOM      8  C   UNL     1      22.886  -1.236   3.449  0.00  0.00    +0.000 C 
ATOM      9  C   UNL     1      24.270  -1.925   3.426  0.00  0.00    +0.000 C 
ATOM     10  C   UNL     1      24.987  -1.720   2.098  0.00  0.00    +0.000 C 
ATOM     11  C   UNL     1      25.058  -0.237   1.772  0.00  0.00    +0.000 C 
ATOM     12  C   UNL     1      23.666   0.391   1.795  0.00  0.00    +0.000 C 
ATOM     13  C   UNL     1      21.671   0.849   3.028  0.00  0.00    +0.000 C 
ENDBRANCH   2   8
BRANCH   6  15
ATOM     14  N   UNL     1      20.884  -1.938  10.990  0.00  0.00    +0.000 NA
ATOM     15  C   UNL     1      20.664  -2.192   8.596  0.00  0.00    +0.000 A 
ATOM     16  C   UNL     1      19.508  -2.943   8.773  0.00  0.00    +0.000 A 
ATOM     17  C   UNL     1      21.309  -1.716   9.726  0.00  0.00    +0.000 A 
ATOM     18  C   UNL     1      19.039  -3.192  10.059  0.00  0.00    +0.000 A 
ATOM     19  C   UNL     1      19.755  -2.672  11.124  0.00  0.00    +0.000 A 
ENDBRANCH   6  15
TORSDOF 2
ENDMDL
