MODEL        3
REMARK  Name = 161313
REMARK  3 active torsions:
REMARK  status: ('A' for Active; 'I' for Inactive)
REMARK    1  A    between atoms: N_1  and  C_10
REMARK    2  A    between atoms: C_4  and  C_9
REMARK    3  A    between atoms: C_14  and  C_15
REMARK                            x       y       z     vdW  Elec       q    Type
REMARK                         _______ _______ _______ _____ _____    ______ ____
ROOT
ATOM      1  N   UNL     1      12.946  11.773  11.872  0.00  0.00    +0.000 NA
ATOM      2  C   UNL     1      14.989  12.739  11.047  0.00  0.00    +0.000 A 
ATOM      3  C   UNL     1      14.739  13.913  11.735  0.00  0.00    +0.000 A 
ATOM      4  C   UNL     1      14.081  11.706  11.139  0.00  0.00    +0.000 A 
ATOM      5  C   UNL     1      13.581  14.019  12.500  0.00  0.00    +0.000 A 
ATOM      6  C   UNL     1      12.725  12.930  12.534  0.00  0.00    +0.000 A 
ENDROOT
BRANCH   2   8
ATOM      7  N   UNL     1      16.258  13.484   9.009  0.00  0.00    +0.000 NA
ATOM      8  C   UNL     1      16.252  12.591  10.197  0.00  0.00    +0.000 C 
ATOM      9  C   UNL     1      17.485  12.839  11.098  0.00  0.00    +0.000 C 
ATOM     10  C   UNL     1      18.790  12.736  10.320  0.00  0.00    +0.000 C 
ATOM     11  C   UNL     1      18.744  13.658   9.110  0.00  0.00    +0.000 C 
ATOM     12  C   UNL     1      17.518  13.363   8.251  0.00  0.00    +0.000 C 
ATOM     13  C   UNL     1      15.138  13.201   8.103  0.00  0.00    +0.000 C 
ENDBRANCH   2   8
BRANCH   6  15
ATOM     14  N   UNL     1      10.378  12.546  15.403  0.00  0.00    +0.000 NA
ATOM     15  C   UNL     1      11.506  12.969  13.308  0.00  0.00    +0.000 A 
ATOM     16  C   UNL     1      10.320  13.436  12.754  0.00  0.00    +0.000 A 
ATOM     17  C   UNL     1      11.482  12.539  14.624  0.00  0.00    +0.000 A 
ATOM     18  C   UNL     1       9.162  13.459  13.524  0.00  0.00    +0.000 A 
ATOM     19  C   UNL     1       9.243  13.009  14.831  0.00  0.00    +0.000 A 
ENDBRANCH   6  15
TORSDOF 2
ENDMDL
