MODEL        4
REMARK  Name = 5280343
REMARK  6 active torsions:
REMARK  status: ('A' for Active; 'I' for Inactive)
REMARK    1  A    between atoms: O_2  and  C_12
REMARK    2  A    between atoms: O_3  and  C_14
REMARK    3  A    between atoms: O_5  and  C_16
REMARK    4  A    between atoms: O_6  and  C_20
REMARK    5  A    between atoms: O_7  and  C_22
REMARK    6  A    between atoms: C_10  and  C_11
REMARK                            x       y       z     vdW  Elec       q    Type
REMARK                         _______ _______ _______ _____ _____    ______ ____
ROOT
ATOM      1  O   UNL     1      12.788  12.723  15.663  0.00  0.00    +0.000 OA
ATOM      2  O   UNL     1      10.689  13.336  12.224  0.00  0.00    +0.000 OA
ATOM      3  C   UNL     1      10.839  13.653  14.557  0.00  0.00    +0.000 A 
ATOM      4  C   UNL     1      11.603  13.409  15.696  0.00  0.00    +0.000 A 
ATOM      5  C   UNL     1      13.253  12.263  14.441  0.00  0.00    +0.000 A 
ATOM      6  C   UNL     1      12.609  12.425  13.270  0.00  0.00    +0.000 A 
ATOM      7  C   UNL     1      11.320  13.157  13.258  0.00  0.00    +0.000 A 
ATOM      8  C   UNL     1       9.636  14.357  14.651  0.00  0.00    +0.000 A 
ATOM      9  C   UNL     1      11.167  13.867  16.940  0.00  0.00    +0.000 A 
ATOM     10  C   UNL     1       9.966  14.572  17.039  0.00  0.00    +0.000 A 
ATOM     11  C   UNL     1       9.203  14.815  15.896  0.00  0.00    +0.000 A 
ENDROOT
BRANCH   5  12
ATOM     12  C   UNL     1      14.535  11.545  14.546  0.00  0.00    +0.000 A 
ATOM     13  C   UNL     1      14.561  10.225  14.995  0.00  0.00    +0.000 A 
ATOM     14  C   UNL     1      15.724  12.185  14.196  0.00  0.00    +0.000 A 
ATOM     15  C   UNL     1      15.774   9.544  15.094  0.00  0.00    +0.000 A 
ATOM     16  C   UNL     1      16.938  11.505  14.295  0.00  0.00    +0.000 A 
ATOM     17  C   UNL     1      16.964  10.185  14.744  0.00  0.00    +0.000 A 
BRANCH  15  18
ATOM     18  O   UNL     1      15.788   8.256  15.535  0.00  0.00    +0.000 OA
ATOM     19  H   UNL     1      16.704   7.952  15.635  0.00  0.00    +0.000 HD
ENDBRANCH  15  18
BRANCH  17  20
ATOM     20  O   UNL     1      18.155   9.530  14.835  0.00  0.00    +0.000 OA
ATOM     21  H   UNL     1      18.019   8.656  15.231  0.00  0.00    +0.000 HD
ENDBRANCH  17  20
ENDBRANCH   5  12
BRANCH   6  22
ATOM     22  O   UNL     1      13.083  11.927  12.076  0.00  0.00    +0.000 OA
ATOM     23  H   UNL     1      12.483  12.174  11.355  0.00  0.00    +0.000 HD
ENDBRANCH   6  22
BRANCH   8  24
ATOM     24  O   UNL     1       8.852  14.622  13.568  0.00  0.00    +0.000 OA
ATOM     25  H   UNL     1       9.391  14.942  12.829  0.00  0.00    +0.000 HD
ENDBRANCH   8  24
BRANCH  10  26
ATOM     26  O   UNL     1       9.539  15.020  18.250  0.00  0.00    +0.000 OA
ATOM     27  H   UNL     1      10.005  14.531  18.950  0.00  0.00    +0.000 HD
ENDBRANCH  10  26
TORSDOF 6
ENDMDL
