MODEL        4
REMARK  Name = 5280343
REMARK  6 active torsions:
REMARK  status: ('A' for Active; 'I' for Inactive)
REMARK    1  A    between atoms: O_2  and  C_12
REMARK    2  A    between atoms: O_3  and  C_14
REMARK    3  A    between atoms: O_5  and  C_16
REMARK    4  A    between atoms: O_6  and  C_20
REMARK    5  A    between atoms: O_7  and  C_22
REMARK    6  A    between atoms: C_10  and  C_11
REMARK                            x       y       z     vdW  Elec       q    Type
REMARK                         _______ _______ _______ _____ _____    ______ ____
ROOT
ATOM      1  O   UNL     1     -30.311-109.772 196.869  0.00  0.00    +0.000 OA
ATOM      2  O   UNL     1     -30.068-111.789 193.336  0.00  0.00    +0.000 OA
ATOM      3  C   UNL     1     -31.269-110.286 194.699  0.00  0.00    +0.000 A 
ATOM      4  C   UNL     1     -31.294-109.625 195.926  0.00  0.00    +0.000 A 
ATOM      5  C   UNL     1     -29.238-110.603 196.583  0.00  0.00    +0.000 A 
ATOM      6  C   UNL     1     -29.099-111.303 195.442  0.00  0.00    +0.000 A 
ATOM      7  C   UNL     1     -30.141-111.179 194.395  0.00  0.00    +0.000 A 
ATOM      8  C   UNL     1     -32.301-110.098 193.777  0.00  0.00    +0.000 A 
ATOM      9  C   UNL     1     -32.354-108.774 196.240  0.00  0.00    +0.000 A 
ATOM     10  C   UNL     1     -33.387-108.585 195.320  0.00  0.00    +0.000 A 
ATOM     11  C   UNL     1     -33.360-109.246 194.092  0.00  0.00    +0.000 A 
ENDROOT
BRANCH   5  12
ATOM     12  C   UNL     1     -28.255-110.671 197.679  0.00  0.00    +0.000 A 
ATOM     13  C   UNL     1     -27.076-111.397 197.514  0.00  0.00    +0.000 A 
ATOM     14  C   UNL     1     -28.504-110.007 198.880  0.00  0.00    +0.000 A 
ATOM     15  C   UNL     1     -26.145-111.460 198.551  0.00  0.00    +0.000 A 
ATOM     16  C   UNL     1     -27.573-110.070 199.917  0.00  0.00    +0.000 A 
ATOM     17  C   UNL     1     -26.394-110.797 199.753  0.00  0.00    +0.000 A 
BRANCH  15  18
ATOM     18  O   UNL     1     -24.998-112.174 198.380  0.00  0.00    +0.000 OA
ATOM     19  H   UNL     1     -24.450-112.111 199.179  0.00  0.00    +0.000 HD
ENDBRANCH  15  18
BRANCH  17  20
ATOM     20  O   UNL     1     -25.491-110.849 200.772  0.00  0.00    +0.000 OA
ATOM     21  H   UNL     1     -24.738-111.404 200.514  0.00  0.00    +0.000 HD
ENDBRANCH  17  20
ENDBRANCH   5  12
BRANCH   6  22
ATOM     22  O   UNL     1     -28.036-112.147 195.202  0.00  0.00    +0.000 OA
ATOM     23  H   UNL     1     -28.068-112.464 194.286  0.00  0.00    +0.000 HD
ENDBRANCH   6  22
BRANCH   8  24
ATOM     24  O   UNL     1     -32.325-110.720 192.564  0.00  0.00    +0.000 OA
ATOM     25  H   UNL     1     -31.834-111.555 192.600  0.00  0.00    +0.000 HD
ENDBRANCH   8  24
BRANCH  10  26
ATOM     26  O   UNL     1     -34.422-107.755 195.623  0.00  0.00    +0.000 OA
ATOM     27  H   UNL     1     -34.138-106.834 195.491  0.00  0.00    +0.000 HD
ENDBRANCH  10  26
TORSDOF 6
ENDMDL
