MODEL        4
REMARK  Name = 5280343
REMARK  6 active torsions:
REMARK  status: ('A' for Active; 'I' for Inactive)
REMARK    1  A    between atoms: O_2  and  C_12
REMARK    2  A    between atoms: O_3  and  C_14
REMARK    3  A    between atoms: O_5  and  C_16
REMARK    4  A    between atoms: O_6  and  C_20
REMARK    5  A    between atoms: O_7  and  C_22
REMARK    6  A    between atoms: C_10  and  C_11
REMARK                            x       y       z     vdW  Elec       q    Type
REMARK                         _______ _______ _______ _____ _____    ______ ____
ROOT
ATOM      1  O   UNL     1      22.691   9.476  -0.359  0.00  0.00    +0.000 OA
ATOM      2  O   UNL     1      24.688   5.960  -0.864  0.00  0.00    +0.000 OA
ATOM      3  C   UNL     1      22.772   7.069  -0.054  0.00  0.00    +0.000 A 
ATOM      4  C   UNL     1      22.141   8.304   0.089  0.00  0.00    +0.000 A 
ATOM      5  C   UNL     1      23.922   9.429  -0.994  0.00  0.00    +0.000 A 
ATOM      6  C   UNL     1      24.638   8.306  -1.188  0.00  0.00    +0.000 A 
ATOM      7  C   UNL     1      24.085   7.014  -0.715  0.00  0.00    +0.000 A 
ATOM      8  C   UNL     1      22.163   5.907   0.425  0.00  0.00    +0.000 A 
ATOM      9  C   UNL     1      20.896   8.383   0.715  0.00  0.00    +0.000 A 
ATOM     10  C   UNL     1      20.285   7.223   1.194  0.00  0.00    +0.000 A 
ATOM     11  C   UNL     1      20.918   5.988   1.049  0.00  0.00    +0.000 A 
ENDROOT
BRANCH   5  12
ATOM     12  C   UNL     1      24.398  10.755  -1.426  0.00  0.00    +0.000 A 
ATOM     13  C   UNL     1      24.405  11.821  -0.526  0.00  0.00    +0.000 A 
ATOM     14  C   UNL     1      24.842  10.944  -2.735  0.00  0.00    +0.000 A 
ATOM     15  C   UNL     1      24.857  13.076  -0.935  0.00  0.00    +0.000 A 
ATOM     16  C   UNL     1      25.293  12.199  -3.144  0.00  0.00    +0.000 A 
ATOM     17  C   UNL     1      25.300  13.265  -2.244  0.00  0.00    +0.000 A 
BRANCH  15  18
ATOM     18  O   UNL     1      24.858  14.110  -0.049  0.00  0.00    +0.000 OA
ATOM     19  H   UNL     1      25.149  14.923  -0.493  0.00  0.00    +0.000 HD
ENDBRANCH  15  18
BRANCH  17  20
ATOM     20  O   UNL     1      25.745  14.486  -2.655  0.00  0.00    +0.000 OA
ATOM     21  H   UNL     1      25.638  15.131  -1.939  0.00  0.00    +0.000 HD
ENDBRANCH  17  20
ENDBRANCH   5  12
BRANCH   6  22
ATOM     22  O   UNL     1      25.876   8.297  -1.794  0.00  0.00    +0.000 OA
ATOM     23  H   UNL     1      26.271   7.414  -1.723  0.00  0.00    +0.000 HD
ENDBRANCH   6  22
BRANCH   8  24
ATOM     24  O   UNL     1      22.737   4.676   0.310  0.00  0.00    +0.000 OA
ATOM     25  H   UNL     1      23.667   4.708   0.582  0.00  0.00    +0.000 HD
ENDBRANCH   8  24
BRANCH  10  26
ATOM     26  O   UNL     1      19.071   7.298   1.803  0.00  0.00    +0.000 OA
ATOM     27  H   UNL     1      19.157   6.980   2.719  0.00  0.00    +0.000 HD
ENDBRANCH  10  26
TORSDOF 6
ENDMDL
