MODEL        5
REMARK  Name = 5280863
REMARK  5 active torsions:
REMARK  status: ('A' for Active; 'I' for Inactive)
REMARK    1  A    between atoms: O_2  and  C_11
REMARK    2  A    between atoms: O_3  and  C_13
REMARK    3  A    between atoms: O_5  and  C_15
REMARK    4  A    between atoms: O_6  and  C_21
REMARK    5  A    between atoms: C_9  and  C_12
REMARK                            x       y       z     vdW  Elec       q    Type
REMARK                         _______ _______ _______ _____ _____    ______ ____
ROOT
ATOM      1  O   UNL     1      30.103  85.317  25.042  0.00  0.00    +0.000 OA
ATOM      2  O   UNL     1      26.718  85.035  22.791  0.00  0.00    +0.000 OA
ATOM      3  C   UNL     1      28.836  86.026  23.097  0.00  0.00    +0.000 A 
ATOM      4  C   UNL     1      29.966  86.077  23.910  0.00  0.00    +0.000 A 
ATOM      5  C   UNL     1      29.077  84.451  25.385  0.00  0.00    +0.000 A 
ATOM      6  C   UNL     1      27.737  85.119  23.463  0.00  0.00    +0.000 A 
ATOM      7  C   UNL     1      27.932  84.313  24.692  0.00  0.00    +0.000 A 
ATOM      8  C   UNL     1      28.751  86.826  21.954  0.00  0.00    +0.000 A 
ATOM      9  C   UNL     1      31.021  86.932  23.585  0.00  0.00    +0.000 A 
ATOM     10  C   UNL     1      30.940  87.732  22.446  0.00  0.00    +0.000 A 
ATOM     11  C   UNL     1      29.808  87.679  21.632  0.00  0.00    +0.000 A 
ENDROOT
BRANCH   5  12
ATOM     12  C   UNL     1      29.350  83.696  26.620  0.00  0.00    +0.000 A 
ATOM     13  C   UNL     1      29.976  84.323  27.698  0.00  0.00    +0.000 A 
ATOM     14  C   UNL     1      28.982  82.353  26.713  0.00  0.00    +0.000 A 
ATOM     15  C   UNL     1      30.235  83.608  28.867  0.00  0.00    +0.000 A 
ATOM     16  C   UNL     1      29.241  81.639  27.883  0.00  0.00    +0.000 A 
ATOM     17  C   UNL     1      29.868  82.267  28.960  0.00  0.00    +0.000 A 
BRANCH  17  18
ATOM     18  O   UNL     1      30.120  81.569  30.102  0.00  0.00    +0.000 OA
ATOM     19  H   UNL     1      29.496  80.826  30.160  0.00  0.00    +0.000 HD
ENDBRANCH  17  18
ENDBRANCH   5  12
BRANCH   7  20
ATOM     20  O   UNL     1      26.915  83.466  25.079  0.00  0.00    +0.000 OA
ATOM     21  H   UNL     1      26.253  83.400  24.372  0.00  0.00    +0.000 HD
ENDBRANCH   7  20
BRANCH   8  22
ATOM     22  O   UNL     1      27.669  86.813  21.127  0.00  0.00    +0.000 OA
ATOM     23  H   UNL     1      26.848  86.843  21.640  0.00  0.00    +0.000 HD
ENDBRANCH   8  22
BRANCH  10  24
ATOM     24  O   UNL     1      31.968  88.566  22.127  0.00  0.00    +0.000 OA
ATOM     25  H   UNL     1      32.565  88.110  21.510  0.00  0.00    +0.000 HD
ENDBRANCH  10  24
TORSDOF 5
ENDMDL
