MODEL        4
REMARK  Name = 5280343
REMARK  6 active torsions:
REMARK  status: ('A' for Active; 'I' for Inactive)
REMARK    1  A    between atoms: O_2  and  C_12
REMARK    2  A    between atoms: O_3  and  C_14
REMARK    3  A    between atoms: O_5  and  C_16
REMARK    4  A    between atoms: O_6  and  C_20
REMARK    5  A    between atoms: O_7  and  C_22
REMARK    6  A    between atoms: C_10  and  C_11
REMARK                            x       y       z     vdW  Elec       q    Type
REMARK                         _______ _______ _______ _____ _____    ______ ____
ROOT
ATOM      1  O   UNL     1      14.525 121.692  16.446  0.00  0.00    +0.000 OA
ATOM      2  O   UNL     1      11.644 121.017  19.248  0.00  0.00    +0.000 OA
ATOM      3  C   UNL     1      13.790 121.861  18.753  0.00  0.00    +0.000 A 
ATOM      4  C   UNL     1      14.735 122.063  17.748  0.00  0.00    +0.000 A 
ATOM      5  C   UNL     1      13.315 121.104  16.112  0.00  0.00    +0.000 A 
ATOM      6  C   UNL     1      12.325 120.846  16.986  0.00  0.00    +0.000 A 
ATOM      7  C   UNL     1      12.510 121.224  18.408  0.00  0.00    +0.000 A 
ATOM      8  C   UNL     1      14.060 122.258  20.065  0.00  0.00    +0.000 A 
ATOM      9  C   UNL     1      15.958 122.662  18.051  0.00  0.00    +0.000 A 
ATOM     10  C   UNL     1      16.231 123.060  19.360  0.00  0.00    +0.000 A 
ATOM     11  C   UNL     1      15.283 122.858  20.365  0.00  0.00    +0.000 A 
ENDROOT
BRANCH   5  12
ATOM     12  C   UNL     1      13.220 120.756  14.683  0.00  0.00    +0.000 A 
ATOM     13  C   UNL     1      12.146 121.218  13.923  0.00  0.00    +0.000 A 
ATOM     14  C   UNL     1      14.205 119.965  14.091  0.00  0.00    +0.000 A 
ATOM     15  C   UNL     1      12.057 120.890  12.570  0.00  0.00    +0.000 A 
ATOM     16  C   UNL     1      14.115 119.636  12.738  0.00  0.00    +0.000 A 
ATOM     17  C   UNL     1      13.041 120.098  11.978  0.00  0.00    +0.000 A 
BRANCH  15  18
ATOM     18  O   UNL     1      11.003 121.345  11.837  0.00  0.00    +0.000 OA
ATOM     19  H   UNL     1      11.030 120.958  10.947  0.00  0.00    +0.000 HD
ENDBRANCH  15  18
BRANCH  17  20
ATOM     20  O   UNL     1      12.966 119.772  10.657  0.00  0.00    +0.000 OA
ATOM     21  H   UNL     1      12.058 119.900  10.339  0.00  0.00    +0.000 HD
ENDBRANCH  17  20
ENDBRANCH   5  12
BRANCH   6  22
ATOM     22  O   UNL     1      11.146 120.229  16.627  0.00  0.00    +0.000 OA
ATOM     23  H   UNL     1      10.538 120.216  17.383  0.00  0.00    +0.000 HD
ENDBRANCH   6  22
BRANCH   8  24
ATOM     24  O   UNL     1      13.171 122.083  21.083  0.00  0.00    +0.000 OA
ATOM     25  H   UNL     1      12.283 122.358  20.809  0.00  0.00    +0.000 HD
ENDBRANCH   8  24
BRANCH  10  26
ATOM     26  O   UNL     1      17.423 123.645  19.658  0.00  0.00    +0.000 OA
ATOM     27  H   UNL     1      17.300 124.247  20.412  0.00  0.00    +0.000 HD
ENDBRANCH  10  26
TORSDOF 6
ENDMDL
