MODEL        5
REMARK  Name = 5280863
REMARK  5 active torsions:
REMARK  status: ('A' for Active; 'I' for Inactive)
REMARK    1  A    between atoms: O_2  and  C_11
REMARK    2  A    between atoms: O_3  and  C_13
REMARK    3  A    between atoms: O_5  and  C_15
REMARK    4  A    between atoms: O_6  and  C_21
REMARK    5  A    between atoms: C_9  and  C_12
REMARK                            x       y       z     vdW  Elec       q    Type
REMARK                         _______ _______ _______ _____ _____    ______ ____
ROOT
ATOM      1  O   UNL     1     -13.234  12.894 -39.663  0.00  0.00    +0.000 OA
ATOM      2  O   UNL     1     -11.368  11.184 -42.857  0.00  0.00    +0.000 OA
ATOM      3  C   UNL     1     -12.774  10.910 -40.983  0.00  0.00    +0.000 A 
ATOM      4  C   UNL     1     -13.383  11.554 -39.909  0.00  0.00    +0.000 A 
ATOM      5  C   UNL     1     -12.454  13.642 -40.530  0.00  0.00    +0.000 A 
ATOM      6  C   UNL     1     -11.933  11.696 -41.899  0.00  0.00    +0.000 A 
ATOM      7  C   UNL     1     -11.806  13.142 -41.598  0.00  0.00    +0.000 A 
ATOM      8  C   UNL     1     -12.961   9.539 -41.183  0.00  0.00    +0.000 A 
ATOM      9  C   UNL     1     -14.184  10.829 -39.024  0.00  0.00    +0.000 A 
ATOM     10  C   UNL     1     -14.373   9.462 -39.220  0.00  0.00    +0.000 A 
ATOM     11  C   UNL     1     -13.763   8.818 -40.297  0.00  0.00    +0.000 A 
ENDROOT
BRANCH   5  12
ATOM     12  C   UNL     1     -12.377  15.065 -40.153  0.00  0.00    +0.000 A 
ATOM     13  C   UNL     1     -12.153  16.035 -41.130  0.00  0.00    +0.000 A 
ATOM     14  C   UNL     1     -12.531  15.441 -38.819  0.00  0.00    +0.000 A 
ATOM     15  C   UNL     1     -12.081  17.381 -40.772  0.00  0.00    +0.000 A 
ATOM     16  C   UNL     1     -12.459  16.788 -38.461  0.00  0.00    +0.000 A 
ATOM     17  C   UNL     1     -12.233  17.758 -39.439  0.00  0.00    +0.000 A 
BRANCH  17  18
ATOM     18  O   UNL     1     -12.164  19.072 -39.090  0.00  0.00    +0.000 OA
ATOM     19  H   UNL     1     -11.507  19.175 -38.381  0.00  0.00    +0.000 HD
ENDBRANCH  17  18
ENDBRANCH   5  12
BRANCH   7  20
ATOM     20  O   UNL     1     -11.009  13.908 -42.422  0.00  0.00    +0.000 OA
ATOM     21  H   UNL     1     -10.739  13.388 -43.196  0.00  0.00    +0.000 HD
ENDBRANCH   7  20
BRANCH   8  22
ATOM     22  O   UNL     1     -12.388   8.863 -42.217  0.00  0.00    +0.000 OA
ATOM     23  H   UNL     1     -12.491   9.356 -43.045  0.00  0.00    +0.000 HD
ENDBRANCH   8  22
BRANCH  10  24
ATOM     24  O   UNL     1     -15.153   8.753 -38.359  0.00  0.00    +0.000 OA
ATOM     25  H   UNL     1     -14.581   8.249 -37.756  0.00  0.00    +0.000 HD
ENDBRANCH  10  24
TORSDOF 5
ENDMDL
