MODEL        4
REMARK  Name = 5280343
REMARK  6 active torsions:
REMARK  status: ('A' for Active; 'I' for Inactive)
REMARK    1  A    between atoms: O_2  and  C_12
REMARK    2  A    between atoms: O_3  and  C_14
REMARK    3  A    between atoms: O_5  and  C_16
REMARK    4  A    between atoms: O_6  and  C_20
REMARK    5  A    between atoms: O_7  and  C_22
REMARK    6  A    between atoms: C_10  and  C_11
REMARK                            x       y       z     vdW  Elec       q    Type
REMARK                         _______ _______ _______ _____ _____    ______ ____
ROOT
ATOM      1  O   UNL     1       8.862   1.292  16.292  0.00  0.00    +0.000 OA
ATOM      2  O   UNL     1      10.236   5.019  15.379  0.00  0.00    +0.000 OA
ATOM      3  C   UNL     1       8.417   3.518  15.434  0.00  0.00    +0.000 A 
ATOM      4  C   UNL     1       8.010   2.228  15.766  0.00  0.00    +0.000 A 
ATOM      5  C   UNL     1      10.182   1.651  16.515  0.00  0.00    +0.000 A 
ATOM      6  C   UNL     1      10.703   2.859  16.231  0.00  0.00    +0.000 A 
ATOM      7  C   UNL     1       9.820   3.901  15.656  0.00  0.00    +0.000 A 
ATOM      8  C   UNL     1       7.503   4.430  14.899  0.00  0.00    +0.000 A 
ATOM      9  C   UNL     1       6.686   1.839  15.563  0.00  0.00    +0.000 A 
ATOM     10  C   UNL     1       5.770   2.747  15.029  0.00  0.00    +0.000 A 
ATOM     11  C   UNL     1       6.179   4.040  14.698  0.00  0.00    +0.000 A 
ENDROOT
BRANCH   5  12
ATOM     12  C   UNL     1      10.988   0.555  17.083  0.00  0.00    +0.000 A 
ATOM     13  C   UNL     1      10.469  -0.234  18.108  0.00  0.00    +0.000 A 
ATOM     14  C   UNL     1      12.271   0.308  16.593  0.00  0.00    +0.000 A 
ATOM     15  C   UNL     1      11.231  -1.272  18.645  0.00  0.00    +0.000 A 
ATOM     16  C   UNL     1      13.034  -0.730  17.130  0.00  0.00    +0.000 A 
ATOM     17  C   UNL     1      12.515  -1.519  18.155  0.00  0.00    +0.000 A 
BRANCH  15  18
ATOM     18  O   UNL     1      10.715  -2.036  19.647  0.00  0.00    +0.000 OA
ATOM     19  H   UNL     1      11.421  -2.561  20.057  0.00  0.00    +0.000 HD
ENDBRANCH  15  18
BRANCH  17  20
ATOM     20  O   UNL     1      13.268  -2.531  18.670  0.00  0.00    +0.000 OA
ATOM     21  H   UNL     1      12.874  -2.844  19.499  0.00  0.00    +0.000 HD
ENDBRANCH  17  20
ENDBRANCH   5  12
BRANCH   6  22
ATOM     22  O   UNL     1      12.029   3.174  16.435  0.00  0.00    +0.000 OA
ATOM     23  H   UNL     1      12.270   3.946  15.900  0.00  0.00    +0.000 HD
ENDBRANCH   6  22
BRANCH   8  24
ATOM     24  O   UNL     1       7.850   5.703  14.558  0.00  0.00    +0.000 OA
ATOM     25  H   UNL     1       8.560   6.028  15.132  0.00  0.00    +0.000 HD
ENDBRANCH   8  24
BRANCH  10  26
ATOM     26  O   UNL     1       4.478   2.371  14.830  0.00  0.00    +0.000 OA
ATOM     27  H   UNL     1       4.427   1.827  14.026  0.00  0.00    +0.000 HD
ENDBRANCH  10  26
TORSDOF 6
ENDMDL
