MODEL        4
REMARK  Name = 5280343
REMARK  6 active torsions:
REMARK  status: ('A' for Active; 'I' for Inactive)
REMARK    1  A    between atoms: O_2  and  C_12
REMARK    2  A    between atoms: O_3  and  C_14
REMARK    3  A    between atoms: O_5  and  C_16
REMARK    4  A    between atoms: O_6  and  C_20
REMARK    5  A    between atoms: O_7  and  C_22
REMARK    6  A    between atoms: C_10  and  C_11
REMARK                            x       y       z     vdW  Elec       q    Type
REMARK                         _______ _______ _______ _____ _____    ______ ____
ROOT
ATOM      1  O   UNL     1     -12.681  12.845 -39.589  0.00  0.00    +0.000 OA
ATOM      2  O   UNL     1     -11.327  11.139 -43.034  0.00  0.00    +0.000 OA
ATOM      3  C   UNL     1     -12.606  10.919 -41.065  0.00  0.00    +0.000 A 
ATOM      4  C   UNL     1     -13.035  11.559 -39.903  0.00  0.00    +0.000 A 
ATOM      5  C   UNL     1     -11.873  13.544 -40.473  0.00  0.00    +0.000 A 
ATOM      6  C   UNL     1     -11.386  13.040 -41.622  0.00  0.00    +0.000 A 
ATOM      7  C   UNL     1     -11.738  11.650 -42.000  0.00  0.00    +0.000 A 
ATOM      8  C   UNL     1     -12.998   9.605 -41.332  0.00  0.00    +0.000 A 
ATOM      9  C   UNL     1     -13.857  10.886 -38.999  0.00  0.00    +0.000 A 
ATOM     10  C   UNL     1     -14.250   9.573 -39.262  0.00  0.00    +0.000 A 
ATOM     11  C   UNL     1     -13.821   8.935 -40.426  0.00  0.00    +0.000 A 
ENDROOT
BRANCH   5  12
ATOM     12  C   UNL     1     -11.570  14.911 -40.017  0.00  0.00    +0.000 A 
ATOM     13  C   UNL     1     -12.478  15.595 -39.208  0.00  0.00    +0.000 A 
ATOM     14  C   UNL     1     -10.374  15.523 -40.394  0.00  0.00    +0.000 A 
ATOM     15  C   UNL     1     -12.190  16.889 -38.775  0.00  0.00    +0.000 A 
ATOM     16  C   UNL     1     -10.086  16.818 -39.962  0.00  0.00    +0.000 A 
ATOM     17  C   UNL     1     -10.994  17.501 -39.153  0.00  0.00    +0.000 A 
BRANCH  15  18
ATOM     18  O   UNL     1     -13.084  17.548 -37.987  0.00  0.00    +0.000 OA
ATOM     19  H   UNL     1     -12.672  18.348 -37.621  0.00  0.00    +0.000 HD
ENDBRANCH  15  18
BRANCH  17  20
ATOM     20  O   UNL     1     -10.701  18.765 -38.736  0.00  0.00    +0.000 OA
ATOM     21  H   UNL     1     -11.360  19.056 -38.087  0.00  0.00    +0.000 HD
ENDBRANCH  17  20
ENDBRANCH   5  12
BRANCH   6  22
ATOM     22  O   UNL     1     -10.558  13.751 -42.464  0.00  0.00    +0.000 OA
ATOM     23  H   UNL     1     -10.319  13.205 -43.229  0.00  0.00    +0.000 HD
ENDBRANCH   6  22
BRANCH   8  24
ATOM     24  O   UNL     1     -12.607   8.935 -42.452  0.00  0.00    +0.000 OA
ATOM     25  H   UNL     1     -12.710   9.495 -43.236  0.00  0.00    +0.000 HD
ENDBRANCH   8  24
BRANCH  10  26
ATOM     26  O   UNL     1     -15.052   8.915 -38.382  0.00  0.00    +0.000 OA
ATOM     27  H   UNL     1     -15.375   8.098 -38.799  0.00  0.00    +0.000 HD
ENDBRANCH  10  26
TORSDOF 6
ENDMDL
