MODEL        5
REMARK  Name = 5280863
REMARK  5 active torsions:
REMARK  status: ('A' for Active; 'I' for Inactive)
REMARK    1  A    between atoms: O_2  and  C_11
REMARK    2  A    between atoms: O_3  and  C_13
REMARK    3  A    between atoms: O_5  and  C_15
REMARK    4  A    between atoms: O_6  and  C_21
REMARK    5  A    between atoms: C_9  and  C_12
REMARK                            x       y       z     vdW  Elec       q    Type
REMARK                         _______ _______ _______ _____ _____    ______ ____
ROOT
ATOM      1  O   UNL     1      21.025  -1.182   5.887  0.00  0.00    +0.000 OA
ATOM      2  O   UNL     1      24.850  -2.492   5.376  0.00  0.00    +0.000 OA
ATOM      3  C   UNL     1      23.043  -1.231   4.537  0.00  0.00    +0.000 A 
ATOM      4  C   UNL     1      21.732  -0.819   4.770  0.00  0.00    +0.000 A 
ATOM      5  C   UNL     1      21.647  -1.985   6.831  0.00  0.00    +0.000 A 
ATOM      6  C   UNL     1      23.703  -2.094   5.529  0.00  0.00    +0.000 A 
ATOM      7  C   UNL     1      22.902  -2.457   6.722  0.00  0.00    +0.000 A 
ATOM      8  C   UNL     1      23.714  -0.829   3.379  0.00  0.00    +0.000 A 
ATOM      9  C   UNL     1      21.083  -0.001   3.844  0.00  0.00    +0.000 A 
ATOM     10  C   UNL     1      21.749   0.402   2.687  0.00  0.00    +0.000 A 
ATOM     11  C   UNL     1      23.062  -0.011   2.455  0.00  0.00    +0.000 A 
ENDROOT
BRANCH   5  12
ATOM     12  C   UNL     1      20.778  -2.301   7.978  0.00  0.00    +0.000 A 
ATOM     13  C   UNL     1      20.360  -1.285   8.838  0.00  0.00    +0.000 A 
ATOM     14  C   UNL     1      20.373  -3.616   8.204  0.00  0.00    +0.000 A 
ATOM     15  C   UNL     1      19.537  -1.584   9.923  0.00  0.00    +0.000 A 
ATOM     16  C   UNL     1      19.550  -3.916   9.290  0.00  0.00    +0.000 A 
ATOM     17  C   UNL     1      19.132  -2.899  10.150  0.00  0.00    +0.000 A 
BRANCH  17  18
ATOM     18  O   UNL     1      18.329  -3.191  11.209  0.00  0.00    +0.000 OA
ATOM     19  H   UNL     1      18.885  -3.351  11.991  0.00  0.00    +0.000 HD
ENDBRANCH  17  18
ENDBRANCH   5  12
BRANCH   7  20
ATOM     20  O   UNL     1      23.480  -3.282   7.664  0.00  0.00    +0.000 OA
ATOM     21  H   UNL     1      24.402  -3.465   7.421  0.00  0.00    +0.000 HD
ENDBRANCH   7  20
BRANCH   8  22
ATOM     22  O   UNL     1      24.994  -1.204   3.105  0.00  0.00    +0.000 OA
ATOM     23  H   UNL     1      25.130  -2.138   3.324  0.00  0.00    +0.000 HD
ENDBRANCH   8  22
BRANCH  10  24
ATOM     24  O   UNL     1      21.118   1.199   1.781  0.00  0.00    +0.000 OA
ATOM     25  H   UNL     1      20.677   1.925   2.254  0.00  0.00    +0.000 HD
ENDBRANCH  10  24
TORSDOF 5
ENDMDL
