MODEL        4
REMARK  Name = 5280343
REMARK  6 active torsions:
REMARK  status: ('A' for Active; 'I' for Inactive)
REMARK    1  A    between atoms: O_2  and  C_12
REMARK    2  A    between atoms: O_3  and  C_14
REMARK    3  A    between atoms: O_5  and  C_16
REMARK    4  A    between atoms: O_6  and  C_20
REMARK    5  A    between atoms: O_7  and  C_22
REMARK    6  A    between atoms: C_10  and  C_11
REMARK                            x       y       z     vdW  Elec       q    Type
REMARK                         _______ _______ _______ _____ _____    ______ ____
ROOT
ATOM      1  O   UNL     1      60.539  32.134  75.488  0.00  0.00    +0.000 OA
ATOM      2  O   UNL     1      57.423  34.759  75.582  0.00  0.00    +0.000 OA
ATOM      3  C   UNL     1      59.051  33.636  74.297  0.00  0.00    +0.000 A 
ATOM      4  C   UNL     1      60.110  32.732  74.332  0.00  0.00    +0.000 A 
ATOM      5  C   UNL     1      59.882  32.433  76.671  0.00  0.00    +0.000 A 
ATOM      6  C   UNL     1      58.852  33.294  76.775  0.00  0.00    +0.000 A 
ATOM      7  C   UNL     1      58.357  33.968  75.551  0.00  0.00    +0.000 A 
ATOM      8  C   UNL     1      58.658  34.215  73.088  0.00  0.00    +0.000 A 
ATOM      9  C   UNL     1      60.786  32.402  73.157  0.00  0.00    +0.000 A 
ATOM     10  C   UNL     1      60.396  32.979  71.947  0.00  0.00    +0.000 A 
ATOM     11  C   UNL     1      59.334  33.884  71.914  0.00  0.00    +0.000 A 
ENDROOT
BRANCH   5  12
ATOM     12  C   UNL     1      60.441  31.724  77.835  0.00  0.00    +0.000 A 
ATOM     13  C   UNL     1      61.524  32.266  78.528  0.00  0.00    +0.000 A 
ATOM     14  C   UNL     1      59.887  30.511  78.245  0.00  0.00    +0.000 A 
ATOM     15  C   UNL     1      62.052  31.595  79.631  0.00  0.00    +0.000 A 
ATOM     16  C   UNL     1      60.416  29.840  79.348  0.00  0.00    +0.000 A 
ATOM     17  C   UNL     1      61.499  30.381  80.040  0.00  0.00    +0.000 A 
BRANCH  15  18
ATOM     18  O   UNL     1      63.110  32.133  80.299  0.00  0.00    +0.000 OA
ATOM     19  H   UNL     1      63.388  31.533  81.012  0.00  0.00    +0.000 HD
ENDBRANCH  15  18
BRANCH  17  20
ATOM     20  O   UNL     1      62.006  29.718  81.117  0.00  0.00    +0.000 OA
ATOM     21  H   UNL     1      62.832  30.138  81.402  0.00  0.00    +0.000 HD
ENDBRANCH  17  20
ENDBRANCH   5  12
BRANCH   6  22
ATOM     22  O   UNL     1      58.240  33.594  77.973  0.00  0.00    +0.000 OA
ATOM     23  H   UNL     1      57.541  34.251  77.830  0.00  0.00    +0.000 HD
ENDBRANCH   6  22
BRANCH   8  24
ATOM     24  O   UNL     1      57.629  35.105  72.999  0.00  0.00    +0.000 OA
ATOM     25  H   UNL     1      56.861  34.787  73.498  0.00  0.00    +0.000 HD
ENDBRANCH   8  24
BRANCH  10  26
ATOM     26  O   UNL     1      61.053  32.659  70.799  0.00  0.00    +0.000 OA
ATOM     27  H   UNL     1      61.555  31.838  70.940  0.00  0.00    +0.000 HD
ENDBRANCH  10  26
TORSDOF 6
ENDMDL
