MODEL        5
REMARK  Name = 5280863
REMARK  5 active torsions:
REMARK  status: ('A' for Active; 'I' for Inactive)
REMARK    1  A    between atoms: O_2  and  C_11
REMARK    2  A    between atoms: O_3  and  C_13
REMARK    3  A    between atoms: O_5  and  C_15
REMARK    4  A    between atoms: O_6  and  C_21
REMARK    5  A    between atoms: C_9  and  C_12
REMARK                            x       y       z     vdW  Elec       q    Type
REMARK                         _______ _______ _______ _____ _____    ______ ____
ROOT
ATOM      1  O   UNL     1       8.987   1.179  16.297  0.00  0.00    +0.000 OA
ATOM      2  O   UNL     1      10.249   4.933  15.342  0.00  0.00    +0.000 OA
ATOM      3  C   UNL     1       8.463   3.399  15.468  0.00  0.00    +0.000 A 
ATOM      4  C   UNL     1       8.097   2.099  15.811  0.00  0.00    +0.000 A 
ATOM      5  C   UNL     1      10.309   1.562  16.467  0.00  0.00    +0.000 A 
ATOM      6  C   UNL     1       9.867   3.808  15.632  0.00  0.00    +0.000 A 
ATOM      7  C   UNL     1      10.793   2.781  16.166  0.00  0.00    +0.000 A 
ATOM      8  C   UNL     1       7.511   4.294  14.975  0.00  0.00    +0.000 A 
ATOM      9  C   UNL     1       6.771   1.686  15.662  0.00  0.00    +0.000 A 
ATOM     10  C   UNL     1       5.818   2.577  15.171  0.00  0.00    +0.000 A 
ATOM     11  C   UNL     1       6.187   3.879  14.828  0.00  0.00    +0.000 A 
ENDROOT
BRANCH   5  12
ATOM     12  C   UNL     1      11.158   0.480  16.995  0.00  0.00    +0.000 A 
ATOM     13  C   UNL     1      12.109   0.756  17.977  0.00  0.00    +0.000 A 
ATOM     14  C   UNL     1      11.011  -0.821  16.513  0.00  0.00    +0.000 A 
ATOM     15  C   UNL     1      12.913  -0.268  18.477  0.00  0.00    +0.000 A 
ATOM     16  C   UNL     1      11.814  -1.845  17.014  0.00  0.00    +0.000 A 
ATOM     17  C   UNL     1      12.767  -1.568  17.996  0.00  0.00    +0.000 A 
BRANCH  17  18
ATOM     18  O   UNL     1      13.551  -2.568  18.485  0.00  0.00    +0.000 OA
ATOM     19  H   UNL     1      13.648  -2.450  19.445  0.00  0.00    +0.000 HD
ENDBRANCH  17  18
ENDBRANCH   5  12
BRANCH   7  20
ATOM     20  O   UNL     1      12.121   3.120  16.315  0.00  0.00    +0.000 OA
ATOM     21  H   UNL     1      12.322   3.906  15.781  0.00  0.00    +0.000 HD
ENDBRANCH   7  20
BRANCH   8  22
ATOM     22  O   UNL     1       7.818   5.575  14.625  0.00  0.00    +0.000 OA
ATOM     23  H   UNL     1       8.490   5.938  15.221  0.00  0.00    +0.000 HD
ENDBRANCH   8  22
BRANCH  10  24
ATOM     24  O   UNL     1       4.525   2.177  15.024  0.00  0.00    +0.000 OA
ATOM     25  H   UNL     1       4.486   1.474  14.354  0.00  0.00    +0.000 HD
ENDBRANCH  10  24
TORSDOF 5
ENDMDL
