MODEL        5
REMARK  Name = 5280863
REMARK  5 active torsions:
REMARK  status: ('A' for Active; 'I' for Inactive)
REMARK    1  A    between atoms: O_2  and  C_11
REMARK    2  A    between atoms: O_3  and  C_13
REMARK    3  A    between atoms: O_5  and  C_15
REMARK    4  A    between atoms: O_6  and  C_21
REMARK    5  A    between atoms: C_9  and  C_12
REMARK                            x       y       z     vdW  Elec       q    Type
REMARK                         _______ _______ _______ _____ _____    ______ ____
ROOT
ATOM      1  O   UNL     1       8.027   6.238  93.543  0.00  0.00    +0.000 OA
ATOM      2  O   UNL     1      11.157   8.827  93.860  0.00  0.00    +0.000 OA
ATOM      3  C   UNL     1       8.922   8.319  94.414  0.00  0.00    +0.000 A 
ATOM      4  C   UNL     1       7.891   7.394  94.266  0.00  0.00    +0.000 A 
ATOM      5  C   UNL     1       9.248   5.972  92.944  0.00  0.00    +0.000 A 
ATOM      6  C   UNL     1      10.217   8.049  93.770  0.00  0.00    +0.000 A 
ATOM      7  C   UNL     1      10.319   6.785  93.003  0.00  0.00    +0.000 A 
ATOM      8  C   UNL     1       8.725   9.482  95.163  0.00  0.00    +0.000 A 
ATOM      9  C   UNL     1       6.652   7.628  94.866  0.00  0.00    +0.000 A 
ATOM     10  C   UNL     1       6.452   8.788  95.614  0.00  0.00    +0.000 A 
ATOM     11  C   UNL     1       7.487   9.713  95.763  0.00  0.00    +0.000 A 
ENDROOT
BRANCH   5  12
ATOM     12  C   UNL     1       9.258   4.701  92.199  0.00  0.00    +0.000 A 
ATOM     13  C   UNL     1       9.264   3.488  92.889  0.00  0.00    +0.000 A 
ATOM     14  C   UNL     1       9.261   4.710  90.804  0.00  0.00    +0.000 A 
ATOM     15  C   UNL     1       9.274   2.285  92.183  0.00  0.00    +0.000 A 
ATOM     16  C   UNL     1       9.270   3.506  90.099  0.00  0.00    +0.000 A 
ATOM     17  C   UNL     1       9.277   2.293  90.789  0.00  0.00    +0.000 A 
BRANCH  17  18
ATOM     18  O   UNL     1       9.286   1.119  90.101  0.00  0.00    +0.000 OA
ATOM     19  H   UNL     1      10.185   0.750  90.120  0.00  0.00    +0.000 HD
ENDBRANCH  17  18
ENDBRANCH   5  12
BRANCH   7  20
ATOM     20  O   UNL     1      11.510   6.507  92.367  0.00  0.00    +0.000 OA
ATOM     21  H   UNL     1      12.118   7.257  92.463  0.00  0.00    +0.000 HD
ENDBRANCH   7  20
BRANCH   8  22
ATOM     22  O   UNL     1       9.701  10.417  95.338  0.00  0.00    +0.000 OA
ATOM     23  H   UNL     1      10.422  10.279  94.706  0.00  0.00    +0.000 HD
ENDBRANCH   8  22
BRANCH  10  24
ATOM     24  O   UNL     1       5.245   9.019  96.201  0.00  0.00    +0.000 OA
ATOM     25  H   UNL     1       4.680   8.237  96.079  0.00  0.00    +0.000 HD
ENDBRANCH  10  24
TORSDOF 5
ENDMDL
