MODEL        5
REMARK  Name = 5280863
REMARK  5 active torsions:
REMARK  status: ('A' for Active; 'I' for Inactive)
REMARK    1  A    between atoms: O_2  and  C_11
REMARK    2  A    between atoms: O_3  and  C_13
REMARK    3  A    between atoms: O_5  and  C_15
REMARK    4  A    between atoms: O_6  and  C_21
REMARK    5  A    between atoms: C_9  and  C_12
REMARK                            x       y       z     vdW  Elec       q    Type
REMARK                         _______ _______ _______ _____ _____    ______ ____
ROOT
ATOM      1  O   UNL     1      14.992  18.188  19.528  0.00  0.00    +0.000 OA
ATOM      2  O   UNL     1      14.355  14.342  20.713  0.00  0.00    +0.000 OA
ATOM      3  C   UNL     1      13.868  16.065  19.178  0.00  0.00    +0.000 A 
ATOM      4  C   UNL     1      14.128  17.388  18.827  0.00  0.00    +0.000 A 
ATOM      5  C   UNL     1      15.644  17.653  20.628  0.00  0.00    +0.000 A 
ATOM      6  C   UNL     1      14.547  15.495  20.352  0.00  0.00    +0.000 A 
ATOM      7  C   UNL     1      15.476  16.396  21.077  0.00  0.00    +0.000 A 
ATOM      8  C   UNL     1      12.976  15.297  18.425  0.00  0.00    +0.000 A 
ATOM      9  C   UNL     1      13.495  17.953  17.718  0.00  0.00    +0.000 A 
ATOM     10  C   UNL     1      12.604  17.189  16.964  0.00  0.00    +0.000 A 
ATOM     11  C   UNL     1      12.346  15.864  17.317  0.00  0.00    +0.000 A 
ENDROOT
BRANCH   5  12
ATOM     12  C   UNL     1      16.541  18.617  21.290  0.00  0.00    +0.000 A 
ATOM     13  C   UNL     1      16.055  19.862  21.688  0.00  0.00    +0.000 A 
ATOM     14  C   UNL     1      17.876  18.283  21.520  0.00  0.00    +0.000 A 
ATOM     15  C   UNL     1      16.904  20.774  22.315  0.00  0.00    +0.000 A 
ATOM     16  C   UNL     1      18.725  19.195  22.147  0.00  0.00    +0.000 A 
ATOM     17  C   UNL     1      18.238  20.441  22.544  0.00  0.00    +0.000 A 
BRANCH  17  18
ATOM     18  O   UNL     1      19.066  21.331  23.157  0.00  0.00    +0.000 OA
ATOM     19  H   UNL     1      19.950  20.934  23.238  0.00  0.00    +0.000 HD
ENDBRANCH  17  18
ENDBRANCH   5  12
BRANCH   7  20
ATOM     20  O   UNL     1      16.115  15.904  22.195  0.00  0.00    +0.000 OA
ATOM     21  H   UNL     1      15.917  14.959  22.299  0.00  0.00    +0.000 HD
ENDBRANCH   7  20
BRANCH   8  22
ATOM     22  O   UNL     1      12.688  14.000  18.727  0.00  0.00    +0.000 OA
ATOM     23  H   UNL     1      13.416  13.596  19.224  0.00  0.00    +0.000 HD
ENDBRANCH   8  22
BRANCH  10  24
ATOM     24  O   UNL     1      11.985  17.737  15.883  0.00  0.00    +0.000 OA
ATOM     25  H   UNL     1      11.421  18.470  16.180  0.00  0.00    +0.000 HD
ENDBRANCH  10  24
TORSDOF 5
ENDMDL
