MODEL        5
REMARK  Name = 5280863
REMARK  5 active torsions:
REMARK  status: ('A' for Active; 'I' for Inactive)
REMARK    1  A    between atoms: O_2  and  C_11
REMARK    2  A    between atoms: O_3  and  C_13
REMARK    3  A    between atoms: O_5  and  C_15
REMARK    4  A    between atoms: O_6  and  C_21
REMARK    5  A    between atoms: C_9  and  C_12
REMARK                            x       y       z     vdW  Elec       q    Type
REMARK                         _______ _______ _______ _____ _____    ______ ____
ROOT
ATOM      1  O   UNL     1      31.015  -8.319   4.194  0.00  0.00    +0.000 OA
ATOM      2  O   UNL     1      32.628 -11.553   6.075  0.00  0.00    +0.000 OA
ATOM      3  C   UNL     1      32.989  -9.548   4.888  0.00  0.00    +0.000 A 
ATOM      4  C   UNL     1      32.375  -8.467   4.259  0.00  0.00    +0.000 A 
ATOM      5  C   UNL     1      30.215  -9.280   4.793  0.00  0.00    +0.000 A 
ATOM      6  C   UNL     1      32.147 -10.579   5.513  0.00  0.00    +0.000 A 
ATOM      7  C   UNL     1      30.681 -10.374   5.424  0.00  0.00    +0.000 A 
ATOM      8  C   UNL     1      34.383  -9.647   4.921  0.00  0.00    +0.000 A 
ATOM      9  C   UNL     1      33.153  -7.477   3.656  0.00  0.00    +0.000 A 
ATOM     10  C   UNL     1      34.544  -7.572   3.687  0.00  0.00    +0.000 A 
ATOM     11  C   UNL     1      35.158  -8.655   4.319  0.00  0.00    +0.000 A 
ENDROOT
BRANCH   5  12
ATOM     12  C   UNL     1      28.776  -9.001   4.650  0.00  0.00    +0.000 A 
ATOM     13  C   UNL     1      28.008  -8.704   5.777  0.00  0.00    +0.000 A 
ATOM     14  C   UNL     1      28.181  -9.032   3.389  0.00  0.00    +0.000 A 
ATOM     15  C   UNL     1      26.645  -8.439   5.641  0.00  0.00    +0.000 A 
ATOM     16  C   UNL     1      26.818  -8.767   3.254  0.00  0.00    +0.000 A 
ATOM     17  C   UNL     1      26.050  -8.471   4.381  0.00  0.00    +0.000 A 
BRANCH  17  18
ATOM     18  O   UNL     1      24.720  -8.212   4.249  0.00  0.00    +0.000 OA
ATOM     19  H   UNL     1      24.361  -7.958   5.116  0.00  0.00    +0.000 HD
ENDBRANCH  17  18
ENDBRANCH   5  12
BRANCH   7  20
ATOM     20  O   UNL     1      29.857 -11.330   5.980  0.00  0.00    +0.000 OA
ATOM     21  H   UNL     1      30.391 -12.058   6.336  0.00  0.00    +0.000 HD
ENDBRANCH   7  20
BRANCH   8  22
ATOM     22  O   UNL     1      35.031 -10.683   5.523  0.00  0.00    +0.000 OA
ATOM     23  H   UNL     1      34.624 -11.528   5.278  0.00  0.00    +0.000 HD
ENDBRANCH   8  22
BRANCH  10  24
ATOM     24  O   UNL     1      35.305  -6.608   3.101  0.00  0.00    +0.000 OA
ATOM     25  H   UNL     1      35.651  -6.016   3.790  0.00  0.00    +0.000 HD
ENDBRANCH  10  24
TORSDOF 5
ENDMDL
