MODEL        5
REMARK  Name = 5280863
REMARK  5 active torsions:
REMARK  status: ('A' for Active; 'I' for Inactive)
REMARK    1  A    between atoms: O_2  and  C_11
REMARK    2  A    between atoms: O_3  and  C_13
REMARK    3  A    between atoms: O_5  and  C_15
REMARK    4  A    between atoms: O_6  and  C_21
REMARK    5  A    between atoms: C_9  and  C_12
REMARK                            x       y       z     vdW  Elec       q    Type
REMARK                         _______ _______ _______ _____ _____    ______ ____
ROOT
ATOM      1  O   UNL     1      14.835 121.966  16.017  0.00  0.00    +0.000 OA
ATOM      2  O   UNL     1      11.730 121.025  18.483  0.00  0.00    +0.000 OA
ATOM      3  C   UNL     1      13.890 121.944  18.253  0.00  0.00    +0.000 A 
ATOM      4  C   UNL     1      14.916 122.238  17.358  0.00  0.00    +0.000 A 
ATOM      5  C   UNL     1      13.675 121.383  15.530  0.00  0.00    +0.000 A 
ATOM      6  C   UNL     1      12.663 121.313  17.745  0.00  0.00    +0.000 A 
ATOM      7  C   UNL     1      12.617 121.041  16.288  0.00  0.00    +0.000 A 
ATOM      8  C   UNL     1      14.030 122.244  19.610  0.00  0.00    +0.000 A 
ATOM      9  C   UNL     1      16.092 122.835  17.816  0.00  0.00    +0.000 A 
ATOM     10  C   UNL     1      16.235 123.136  19.169  0.00  0.00    +0.000 A 
ATOM     11  C   UNL     1      15.206 122.842  20.065  0.00  0.00    +0.000 A 
ENDROOT
BRANCH   5  12
ATOM     12  C   UNL     1      13.719 121.143  14.077  0.00  0.00    +0.000 A 
ATOM     13  C   UNL     1      14.507 120.114  13.562  0.00  0.00    +0.000 A 
ATOM     14  C   UNL     1      12.971 121.946  13.215  0.00  0.00    +0.000 A 
ATOM     15  C   UNL     1      14.547 119.887  12.186  0.00  0.00    +0.000 A 
ATOM     16  C   UNL     1      13.011 121.719  11.839  0.00  0.00    +0.000 A 
ATOM     17  C   UNL     1      13.800 120.689  11.325  0.00  0.00    +0.000 A 
BRANCH  17  18
ATOM     18  O   UNL     1      13.839 120.467   9.982  0.00  0.00    +0.000 OA
ATOM     19  H   UNL     1      14.584 120.964   9.603  0.00  0.00    +0.000 HD
ENDBRANCH  17  18
ENDBRANCH   5  12
BRANCH   7  20
ATOM     20  O   UNL     1      11.491 120.431  15.777  0.00  0.00    +0.000 OA
ATOM     21  H   UNL     1      10.838 120.301  16.483  0.00  0.00    +0.000 HD
ENDBRANCH   7  20
BRANCH   8  22
ATOM     22  O   UNL     1      13.058 121.976  20.526  0.00  0.00    +0.000 OA
ATOM     23  H   UNL     1      12.191 122.254  20.192  0.00  0.00    +0.000 HD
ENDBRANCH   8  22
BRANCH  10  24
ATOM     24  O   UNL     1      17.381 123.719  19.619  0.00  0.00    +0.000 OA
ATOM     25  H   UNL     1      17.173 124.266  20.395  0.00  0.00    +0.000 HD
ENDBRANCH  10  24
TORSDOF 5
ENDMDL
