MODEL        4
REMARK  Name = 5280343
REMARK  6 active torsions:
REMARK  status: ('A' for Active; 'I' for Inactive)
REMARK    1  A    between atoms: O_2  and  C_12
REMARK    2  A    between atoms: O_3  and  C_14
REMARK    3  A    between atoms: O_5  and  C_16
REMARK    4  A    between atoms: O_6  and  C_20
REMARK    5  A    between atoms: O_7  and  C_22
REMARK    6  A    between atoms: C_10  and  C_11
REMARK                            x       y       z     vdW  Elec       q    Type
REMARK                         _______ _______ _______ _____ _____    ______ ____
ROOT
ATOM      1  O   UNL     1       1.364  15.565  21.298  0.00  0.00    +0.000 OA
ATOM      2  O   UNL     1       0.260  13.802  17.793  0.00  0.00    +0.000 OA
ATOM      3  C   UNL     1       1.965  14.221  19.368  0.00  0.00    +0.000 A 
ATOM      4  C   UNL     1       2.279  14.848  20.572  0.00  0.00    +0.000 A 
ATOM      5  C   UNL     1       0.067  15.659  20.819  0.00  0.00    +0.000 A 
ATOM      6  C   UNL     1      -0.363  15.108  19.669  0.00  0.00    +0.000 A 
ATOM      7  C   UNL     1       0.593  14.328  18.848  0.00  0.00    +0.000 A 
ATOM      8  C   UNL     1       2.941  13.505  18.671  0.00  0.00    +0.000 A 
ATOM      9  C   UNL     1       3.574  14.765  21.086  0.00  0.00    +0.000 A 
ATOM     10  C   UNL     1       4.551  14.049  20.392  0.00  0.00    +0.000 A 
ATOM     11  C   UNL     1       4.234  13.421  19.186  0.00  0.00    +0.000 A 
ENDROOT
BRANCH   5  12
ATOM     12  C   UNL     1      -0.813  16.454  21.693  0.00  0.00    +0.000 A 
ATOM     13  C   UNL     1      -0.303  17.554  22.382  0.00  0.00    +0.000 A 
ATOM     14  C   UNL     1      -2.158  16.107  21.831  0.00  0.00    +0.000 A 
ATOM     15  C   UNL     1      -1.137  18.308  23.208  0.00  0.00    +0.000 A 
ATOM     16  C   UNL     1      -2.991  16.860  22.658  0.00  0.00    +0.000 A 
ATOM     17  C   UNL     1      -2.481  17.960  23.347  0.00  0.00    +0.000 A 
BRANCH  15  18
ATOM     18  O   UNL     1      -0.628  19.380  23.877  0.00  0.00    +0.000 OA
ATOM     19  H   UNL     1      -1.329  19.807  24.395  0.00  0.00    +0.000 HD
ENDBRANCH  15  18
BRANCH  17  20
ATOM     20  O   UNL     1      -3.305  18.690  24.150  0.00  0.00    +0.000 OA
ATOM     21  H   UNL     1      -2.853  18.895  24.983  0.00  0.00    +0.000 HD
ENDBRANCH  17  20
ENDBRANCH   5  12
BRANCH   6  22
ATOM     22  O   UNL     1      -1.653  15.247  19.204  0.00  0.00    +0.000 OA
ATOM     23  H   UNL     1      -1.756  14.766  18.368  0.00  0.00    +0.000 HD
ENDBRANCH   6  22
BRANCH   8  24
ATOM     24  O   UNL     1       2.685  12.874  17.490  0.00  0.00    +0.000 OA
ATOM     25  H   UNL     1       2.211  13.464  16.885  0.00  0.00    +0.000 HD
ENDBRANCH   8  24
BRANCH  10  26
ATOM     26  O   UNL     1       5.814  13.965  20.891  0.00  0.00    +0.000 OA
ATOM     27  H   UNL     1       6.364  14.652  20.476  0.00  0.00    +0.000 HD
ENDBRANCH  10  26
TORSDOF 6
ENDMDL
