MODEL        4
REMARK  Name = 5280343
REMARK  6 active torsions:
REMARK  status: ('A' for Active; 'I' for Inactive)
REMARK    1  A    between atoms: O_2  and  C_12
REMARK    2  A    between atoms: O_3  and  C_14
REMARK    3  A    between atoms: O_5  and  C_16
REMARK    4  A    between atoms: O_6  and  C_20
REMARK    5  A    between atoms: O_7  and  C_22
REMARK    6  A    between atoms: C_10  and  C_11
REMARK                            x       y       z     vdW  Elec       q    Type
REMARK                         _______ _______ _______ _____ _____    ______ ____
ROOT
ATOM      1  O   UNL     1     153.700 172.645 142.666  0.00  0.00    +0.000 OA
ATOM      2  O   UNL     1     155.053 168.817 142.308  0.00  0.00    +0.000 OA
ATOM      3  C   UNL     1     155.535 171.065 142.835  0.00  0.00    +0.000 A 
ATOM      4  C   UNL     1     155.011 172.352 142.937  0.00  0.00    +0.000 A 
ATOM      5  C   UNL     1     152.856 171.612 142.287  0.00  0.00    +0.000 A 
ATOM      6  C   UNL     1     153.237 170.330 142.143  0.00  0.00    +0.000 A 
ATOM      7  C   UNL     1     154.648 169.967 142.420  0.00  0.00    +0.000 A 
ATOM      8  C   UNL     1     156.881 170.826 143.123  0.00  0.00    +0.000 A 
ATOM      9  C   UNL     1     155.832 173.411 143.326  0.00  0.00    +0.000 A 
ATOM     10  C   UNL     1     157.178 173.176 143.615  0.00  0.00    +0.000 A 
ATOM     11  C   UNL     1     157.700 171.886 143.512  0.00  0.00    +0.000 A 
ENDROOT
BRANCH   5  12
ATOM     12  C   UNL     1     151.478 172.062 142.027  0.00  0.00    +0.000 A 
ATOM     13  C   UNL     1     150.999 172.126 140.718  0.00  0.00    +0.000 A 
ATOM     14  C   UNL     1     150.650 172.425 143.090  0.00  0.00    +0.000 A 
ATOM     15  C   UNL     1     149.693 172.551 140.472  0.00  0.00    +0.000 A 
ATOM     16  C   UNL     1     149.345 172.850 142.844  0.00  0.00    +0.000 A 
ATOM     17  C   UNL     1     148.866 172.914 141.536  0.00  0.00    +0.000 A 
BRANCH  15  18
ATOM     18  O   UNL     1     149.237 172.610 139.191  0.00  0.00    +0.000 OA
ATOM     19  H   UNL     1     148.352 173.008 139.175  0.00  0.00    +0.000 HD
ENDBRANCH  15  18
BRANCH  17  20
ATOM     20  O   UNL     1     147.589 173.329 141.309  0.00  0.00    +0.000 OA
ATOM     21  H   UNL     1     147.360 173.190 140.376  0.00  0.00    +0.000 HD
ENDBRANCH  17  20
ENDBRANCH   5  12
BRANCH   6  22
ATOM     22  O   UNL     1     152.380 169.332 141.732  0.00  0.00    +0.000 OA
ATOM     23  H   UNL     1     152.869 168.501 141.624  0.00  0.00    +0.000 HD
ENDBRANCH   6  22
BRANCH   8  24
ATOM     24  O   UNL     1     157.442 169.587 143.039  0.00  0.00    +0.000 OA
ATOM     25  H   UNL     1     156.861 168.923 143.439  0.00  0.00    +0.000 HD
ENDBRANCH   8  24
BRANCH  10  26
ATOM     26  O   UNL     1     157.980 174.206 143.994  0.00  0.00    +0.000 OA
ATOM     27  H   UNL     1     157.661 175.026 143.580  0.00  0.00    +0.000 HD
ENDBRANCH  10  26
TORSDOF 6
ENDMDL
