MODEL        4
REMARK  Name = 5280343
REMARK  6 active torsions:
REMARK  status: ('A' for Active; 'I' for Inactive)
REMARK    1  A    between atoms: O_2  and  C_12
REMARK    2  A    between atoms: O_3  and  C_14
REMARK    3  A    between atoms: O_5  and  C_16
REMARK    4  A    between atoms: O_6  and  C_20
REMARK    5  A    between atoms: O_7  and  C_22
REMARK    6  A    between atoms: C_10  and  C_11
REMARK                            x       y       z     vdW  Elec       q    Type
REMARK                         _______ _______ _______ _____ _____    ______ ____
ROOT
ATOM      1  O   UNL     1      30.217  85.313  25.081  0.00  0.00    +0.000 OA
ATOM      2  O   UNL     1      26.792  85.024  22.892  0.00  0.00    +0.000 OA
ATOM      3  C   UNL     1      28.912  86.021  23.162  0.00  0.00    +0.000 A 
ATOM      4  C   UNL     1      30.058  86.075  23.954  0.00  0.00    +0.000 A 
ATOM      5  C   UNL     1      29.200  84.443  25.442  0.00  0.00    +0.000 A 
ATOM      6  C   UNL     1      28.043  84.302  24.770  0.00  0.00    +0.000 A 
ATOM      7  C   UNL     1      27.824  85.110  23.546  0.00  0.00    +0.000 A 
ATOM      8  C   UNL     1      28.805  86.823  22.023  0.00  0.00    +0.000 A 
ATOM      9  C   UNL     1      31.103  86.933  23.612  0.00  0.00    +0.000 A 
ATOM     10  C   UNL     1      30.999  87.735  22.474  0.00  0.00    +0.000 A 
ATOM     11  C   UNL     1      29.851  87.680  21.682  0.00  0.00    +0.000 A 
ENDROOT
BRANCH   5  12
ATOM     12  C   UNL     1      29.499  83.686  26.670  0.00  0.00    +0.000 A 
ATOM     13  C   UNL     1      29.350  82.300  26.689  0.00  0.00    +0.000 A 
ATOM     14  C   UNL     1      29.932  84.357  27.815  0.00  0.00    +0.000 A 
ATOM     15  C   UNL     1      29.635  81.583  27.852  0.00  0.00    +0.000 A 
ATOM     16  C   UNL     1      30.216  83.641  28.978  0.00  0.00    +0.000 A 
ATOM     17  C   UNL     1      30.067  82.254  28.997  0.00  0.00    +0.000 A 
BRANCH  15  18
ATOM     18  O   UNL     1      29.485  80.230  27.860  0.00  0.00    +0.000 OA
ATOM     19  H   UNL     1      29.475  79.906  28.775  0.00  0.00    +0.000 HD
ENDBRANCH  15  18
BRANCH  17  20
ATOM     20  O   UNL     1      30.349  81.565  30.138  0.00  0.00    +0.000 OA
ATOM     21  H   UNL     1      29.950  80.682  30.094  0.00  0.00    +0.000 HD
ENDBRANCH  17  20
ENDBRANCH   5  12
BRANCH   6  22
ATOM     22  O   UNL     1      27.037  83.451  25.174  0.00  0.00    +0.000 OA
ATOM     23  H   UNL     1      26.349  83.407  24.491  0.00  0.00    +0.000 HD
ENDBRANCH   6  22
BRANCH   8  24
ATOM     24  O   UNL     1      27.707  86.809  21.215  0.00  0.00    +0.000 OA
ATOM     25  H   UNL     1      26.895  86.841  21.744  0.00  0.00    +0.000 HD
ENDBRANCH   8  24
BRANCH  10  26
ATOM     26  O   UNL     1      32.017  88.573  22.138  0.00  0.00    +0.000 OA
ATOM     27  H   UNL     1      32.533  88.171  21.418  0.00  0.00    +0.000 HD
ENDBRANCH  10  26
TORSDOF 6
ENDMDL
