MODEL        4
REMARK  Name = 5280343
REMARK  6 active torsions:
REMARK  status: ('A' for Active; 'I' for Inactive)
REMARK    1  A    between atoms: O_2  and  C_12
REMARK    2  A    between atoms: O_3  and  C_14
REMARK    3  A    between atoms: O_5  and  C_16
REMARK    4  A    between atoms: O_6  and  C_20
REMARK    5  A    between atoms: O_7  and  C_22
REMARK    6  A    between atoms: C_10  and  C_11
REMARK                            x       y       z     vdW  Elec       q    Type
REMARK                         _______ _______ _______ _____ _____    ______ ____
ROOT
ATOM      1  O   UNL     1       8.018   6.182  93.714  0.00  0.00    +0.000 OA
ATOM      2  O   UNL     1      11.088   8.862  93.753  0.00  0.00    +0.000 OA
ATOM      3  C   UNL     1       8.893   8.329  94.431  0.00  0.00    +0.000 A 
ATOM      4  C   UNL     1       7.881   7.372  94.379  0.00  0.00    +0.000 A 
ATOM      5  C   UNL     1       9.220   5.913  93.077  0.00  0.00    +0.000 A 
ATOM      6  C   UNL     1      10.270   6.754  93.045  0.00  0.00    +0.000 A 
ATOM      7  C   UNL     1      10.166   8.057  93.746  0.00  0.00    +0.000 A 
ATOM      8  C   UNL     1       8.696   9.526  95.123  0.00  0.00    +0.000 A 
ATOM      9  C   UNL     1       6.664   7.608  95.018  0.00  0.00    +0.000 A 
ATOM     10  C   UNL     1       6.464   8.803  95.711  0.00  0.00    +0.000 A 
ATOM     11  C   UNL     1       7.479   9.760  95.763  0.00  0.00    +0.000 A 
ENDROOT
BRANCH   5  12
ATOM     12  C   UNL     1       9.234   4.603  92.403  0.00  0.00    +0.000 A 
ATOM     13  C   UNL     1       9.241   4.535  91.010  0.00  0.00    +0.000 A 
ATOM     14  C   UNL     1       9.240   3.431  93.160  0.00  0.00    +0.000 A 
ATOM     15  C   UNL     1       9.256   3.294  90.373  0.00  0.00    +0.000 A 
ATOM     16  C   UNL     1       9.253   2.190  92.522  0.00  0.00    +0.000 A 
ATOM     17  C   UNL     1       9.261   2.122  91.129  0.00  0.00    +0.000 A 
BRANCH  15  18
ATOM     18  O   UNL     1       9.261   3.239  89.012  0.00  0.00    +0.000 OA
ATOM     19  H   UNL     1       9.345   2.316  88.721  0.00  0.00    +0.000 HD
ENDBRANCH  15  18
BRANCH  17  20
ATOM     20  O   UNL     1       9.277   0.904  90.518  0.00  0.00    +0.000 OA
ATOM     21  H   UNL     1       8.963   0.992  89.604  0.00  0.00    +0.000 HD
ENDBRANCH  17  20
ENDBRANCH   5  12
BRANCH   6  22
ATOM     22  O   UNL     1      11.440   6.471  92.374  0.00  0.00    +0.000 OA
ATOM     23  H   UNL     1      12.014   7.254  92.368  0.00  0.00    +0.000 HD
ENDBRANCH   6  22
BRANCH   8  24
ATOM     24  O   UNL     1       9.652  10.494  95.204  0.00  0.00    +0.000 OA
ATOM     25  H   UNL     1      10.520  10.101  95.383  0.00  0.00    +0.000 HD
ENDBRANCH   8  24
BRANCH  10  26
ATOM     26  O   UNL     1       5.278   9.035  96.336  0.00  0.00    +0.000 OA
ATOM     27  H   UNL     1       4.577   9.110  95.666  0.00  0.00    +0.000 HD
ENDBRANCH  10  26
TORSDOF 6
ENDMDL
