MODEL        5
REMARK  Name = 5280863
REMARK  5 active torsions:
REMARK  status: ('A' for Active; 'I' for Inactive)
REMARK    1  A    between atoms: O_2  and  C_11
REMARK    2  A    between atoms: O_3  and  C_13
REMARK    3  A    between atoms: O_5  and  C_15
REMARK    4  A    between atoms: O_6  and  C_21
REMARK    5  A    between atoms: C_9  and  C_12
REMARK                            x       y       z     vdW  Elec       q    Type
REMARK                         _______ _______ _______ _____ _____    ______ ____
ROOT
ATOM      1  O   UNL     1      28.134   6.543  59.580  0.00  0.00    +0.000 OA
ATOM      2  O   UNL     1      27.969   3.518  62.306  0.00  0.00    +0.000 OA
ATOM      3  C   UNL     1      27.818   5.832  61.880  0.00  0.00    +0.000 A 
ATOM      4  C   UNL     1      27.889   6.820  60.900  0.00  0.00    +0.000 A 
ATOM      5  C   UNL     1      28.307   5.220  59.204  0.00  0.00    +0.000 A 
ATOM      6  C   UNL     1      28.014   4.428  61.489  0.00  0.00    +0.000 A 
ATOM      7  C   UNL     1      28.271   4.175  60.051  0.00  0.00    +0.000 A 
ATOM      8  C   UNL     1      27.566   6.176  63.211  0.00  0.00    +0.000 A 
ATOM      9  C   UNL     1      27.709   8.161  61.246  0.00  0.00    +0.000 A 
ATOM     10  C   UNL     1      27.457   8.507  62.573  0.00  0.00    +0.000 A 
ATOM     11  C   UNL     1      27.385   7.516  63.553  0.00  0.00    +0.000 A 
ENDROOT
BRANCH   5  12
ATOM     12  C   UNL     1      28.563   5.062  57.761  0.00  0.00    +0.000 A 
ATOM     13  C   UNL     1      29.653   4.308  57.325  0.00  0.00    +0.000 A 
ATOM     14  C   UNL     1      27.715   5.664  56.832  0.00  0.00    +0.000 A 
ATOM     15  C   UNL     1      29.896   4.158  55.959  0.00  0.00    +0.000 A 
ATOM     16  C   UNL     1      27.957   5.513  55.466  0.00  0.00    +0.000 A 
ATOM     17  C   UNL     1      29.049   4.760  55.030  0.00  0.00    +0.000 A 
BRANCH  17  18
ATOM     18  O   UNL     1      29.285   4.613  53.698  0.00  0.00    +0.000 OA
ATOM     19  H   UNL     1      28.635   5.141  53.203  0.00  0.00    +0.000 HD
ENDBRANCH  17  18
ENDBRANCH   5  12
BRANCH   7  20
ATOM     20  O   UNL     1      28.481   2.873  59.649  0.00  0.00    +0.000 OA
ATOM     21  H   UNL     1      28.496   2.287  60.423  0.00  0.00    +0.000 HD
ENDBRANCH   7  20
BRANCH   8  22
ATOM     22  O   UNL     1      27.487   5.248  64.206  0.00  0.00    +0.000 OA
ATOM     23  H   UNL     1      28.218   4.615  64.140  0.00  0.00    +0.000 HD
ENDBRANCH   8  22
BRANCH  10  24
ATOM     24  O   UNL     1      27.281   9.813  62.913  0.00  0.00    +0.000 OA
ATOM     25  H   UNL     1      28.042  10.107  63.441  0.00  0.00    +0.000 HD
ENDBRANCH  10  24
TORSDOF 5
ENDMDL
