MODEL        4
REMARK  Name = 5280343
REMARK  6 active torsions:
REMARK  status: ('A' for Active; 'I' for Inactive)
REMARK    1  A    between atoms: O_2  and  C_12
REMARK    2  A    between atoms: O_3  and  C_14
REMARK    3  A    between atoms: O_5  and  C_16
REMARK    4  A    between atoms: O_6  and  C_20
REMARK    5  A    between atoms: O_7  and  C_22
REMARK    6  A    between atoms: C_10  and  C_11
REMARK                            x       y       z     vdW  Elec       q    Type
REMARK                         _______ _______ _______ _____ _____    ______ ____
ROOT
ATOM      1  O   UNL     1      22.002  35.111  11.188  0.00  0.00    +0.000 OA
ATOM      2  O   UNL     1      21.899  31.196  10.058  0.00  0.00    +0.000 OA
ATOM      3  C   UNL     1      22.919  33.311   9.842  0.00  0.00    +0.000 A 
ATOM      4  C   UNL     1      22.901  34.638  10.268  0.00  0.00    +0.000 A 
ATOM      5  C   UNL     1      21.080  34.227  11.726  0.00  0.00    +0.000 A 
ATOM      6  C   UNL     1      20.986  32.926  11.394  0.00  0.00    +0.000 A 
ATOM      7  C   UNL     1      21.935  32.372  10.399  0.00  0.00    +0.000 A 
ATOM      8  C   UNL     1      23.859  32.887   8.899  0.00  0.00    +0.000 A 
ATOM      9  C   UNL     1      23.823  35.550   9.753  0.00  0.00    +0.000 A 
ATOM     10  C   UNL     1      24.764  35.129   8.811  0.00  0.00    +0.000 A 
ATOM     11  C   UNL     1      24.781  33.799   8.386  0.00  0.00    +0.000 A 
ENDROOT
BRANCH   5  12
ATOM     12  C   UNL     1      20.175  34.862  12.700  0.00  0.00    +0.000 A 
ATOM     13  C   UNL     1      19.500  36.035  12.364  0.00  0.00    +0.000 A 
ATOM     14  C   UNL     1      19.994  34.290  13.960  0.00  0.00    +0.000 A 
ATOM     15  C   UNL     1      18.642  36.636  13.286  0.00  0.00    +0.000 A 
ATOM     16  C   UNL     1      19.137  34.891  14.882  0.00  0.00    +0.000 A 
ATOM     17  C   UNL     1      18.462  36.064  14.546  0.00  0.00    +0.000 A 
BRANCH  15  18
ATOM     18  O   UNL     1      17.989  37.782  12.947  0.00  0.00    +0.000 OA
ATOM     19  H   UNL     1      17.301  37.974  13.605  0.00  0.00    +0.000 HD
ENDBRANCH  15  18
BRANCH  17  20
ATOM     20  O   UNL     1      17.626  36.640  15.454  0.00  0.00    +0.000 OA
ATOM     21  H   UNL     1      17.121  37.352  15.030  0.00  0.00    +0.000 HD
ENDBRANCH  17  20
ENDBRANCH   5  12
BRANCH   6  22
ATOM     22  O   UNL     1      20.035  32.081  11.924  0.00  0.00    +0.000 OA
ATOM     23  H   UNL     1      20.112  31.203  11.518  0.00  0.00    +0.000 HD
ENDBRANCH   6  22
BRANCH   8  24
ATOM     24  O   UNL     1      23.920  31.602   8.450  0.00  0.00    +0.000 OA
ATOM     25  H   UNL     1      23.865  30.979   9.190  0.00  0.00    +0.000 HD
ENDBRANCH   8  24
BRANCH  10  26
ATOM     26  O   UNL     1      25.664  36.015   8.307  0.00  0.00    +0.000 OA
ATOM     27  H   UNL     1      25.996  36.575   9.031  0.00  0.00    +0.000 HD
ENDBRANCH  10  26
TORSDOF 6
ENDMDL
