MODEL        5
REMARK  Name = 5280863
REMARK  5 active torsions:
REMARK  status: ('A' for Active; 'I' for Inactive)
REMARK    1  A    between atoms: O_2  and  C_11
REMARK    2  A    between atoms: O_3  and  C_13
REMARK    3  A    between atoms: O_5  and  C_15
REMARK    4  A    between atoms: O_6  and  C_21
REMARK    5  A    between atoms: C_9  and  C_12
REMARK                            x       y       z     vdW  Elec       q    Type
REMARK                         _______ _______ _______ _____ _____    ______ ____
ROOT
ATOM      1  O   UNL     1     -30.392-109.636 196.938  0.00  0.00    +0.000 OA
ATOM      2  O   UNL     1     -30.091-111.721 193.450  0.00  0.00    +0.000 OA
ATOM      3  C   UNL     1     -31.331-110.217 194.776  0.00  0.00    +0.000 A 
ATOM      4  C   UNL     1     -31.375-109.533 195.989  0.00  0.00    +0.000 A 
ATOM      5  C   UNL     1     -29.300-110.448 196.673  0.00  0.00    +0.000 A 
ATOM      6  C   UNL     1     -30.182-111.090 194.494  0.00  0.00    +0.000 A 
ATOM      7  C   UNL     1     -29.140-111.168 195.547  0.00  0.00    +0.000 A 
ATOM      8  C   UNL     1     -32.364-110.072 193.847  0.00  0.00    +0.000 A 
ATOM      9  C   UNL     1     -32.456-108.699 196.281  0.00  0.00    +0.000 A 
ATOM     10  C   UNL     1     -33.489-108.552 195.356  0.00  0.00    +0.000 A 
ATOM     11  C   UNL     1     -33.443-109.238 194.141  0.00  0.00    +0.000 A 
ENDROOT
BRANCH   5  12
ATOM     12  C   UNL     1     -28.319-110.471 197.772  0.00  0.00    +0.000 A 
ATOM     13  C   UNL     1     -27.825-111.688 198.242  0.00  0.00    +0.000 A 
ATOM     14  C   UNL     1     -27.884-109.275 198.343  0.00  0.00    +0.000 A 
ATOM     15  C   UNL     1     -26.897-111.709 199.283  0.00  0.00    +0.000 A 
ATOM     16  C   UNL     1     -26.955-109.296 199.384  0.00  0.00    +0.000 A 
ATOM     17  C   UNL     1     -26.462-110.514 199.854  0.00  0.00    +0.000 A 
BRANCH  17  18
ATOM     18  O   UNL     1     -25.555-110.535 200.869  0.00  0.00    +0.000 OA
ATOM     19  H   UNL     1     -24.802-111.090 200.606  0.00  0.00    +0.000 HD
ENDBRANCH  17  18
ENDBRANCH   5  12
BRANCH   7  20
ATOM     20  O   UNL     1     -28.058-111.993 195.328  0.00  0.00    +0.000 OA
ATOM     21  H   UNL     1     -28.053-112.294 194.405  0.00  0.00    +0.000 HD
ENDBRANCH   7  20
BRANCH   8  22
ATOM     22  O   UNL     1     -32.369-110.719 192.647  0.00  0.00    +0.000 OA
ATOM     23  H   UNL     1     -31.940-111.585 192.726  0.00  0.00    +0.000 HD
ENDBRANCH   8  22
BRANCH  10  24
ATOM     24  O   UNL     1     -34.544-107.740 195.638  0.00  0.00    +0.000 OA
ATOM     25  H   UNL     1     -34.263-106.814 195.545  0.00  0.00    +0.000 HD
ENDBRANCH  10  24
TORSDOF 5
ENDMDL
