MODEL        4
REMARK  Name = 5280343
REMARK  6 active torsions:
REMARK  status: ('A' for Active; 'I' for Inactive)
REMARK    1  A    between atoms: O_2  and  C_12
REMARK    2  A    between atoms: O_3  and  C_14
REMARK    3  A    between atoms: O_5  and  C_16
REMARK    4  A    between atoms: O_6  and  C_20
REMARK    5  A    between atoms: O_7  and  C_22
REMARK    6  A    between atoms: C_10  and  C_11
REMARK                            x       y       z     vdW  Elec       q    Type
REMARK                         _______ _______ _______ _____ _____    ______ ____
ROOT
ATOM      1  O   UNL     1      31.063  -8.315   4.281  0.00  0.00    +0.000 OA
ATOM      2  O   UNL     1      32.806 -11.547   6.049  0.00  0.00    +0.000 OA
ATOM      3  C   UNL     1      33.084  -9.507   4.898  0.00  0.00    +0.000 A 
ATOM      4  C   UNL     1      32.428  -8.429   4.308  0.00  0.00    +0.000 A 
ATOM      5  C   UNL     1      30.303  -9.310   4.877  0.00  0.00    +0.000 A 
ATOM      6  C   UNL     1      30.812 -10.404   5.471  0.00  0.00    +0.000 A 
ATOM      7  C   UNL     1      32.285 -10.573   5.520  0.00  0.00    +0.000 A 
ATOM      8  C   UNL     1      34.480  -9.570   4.894  0.00  0.00    +0.000 A 
ATOM      9  C   UNL     1      33.164  -7.406   3.708  0.00  0.00    +0.000 A 
ATOM     10  C   UNL     1      34.559  -7.466   3.703  0.00  0.00    +0.000 A 
ATOM     11  C   UNL     1      35.214  -8.547   4.295  0.00  0.00    +0.000 A 
ENDROOT
BRANCH   5  12
ATOM     12  C   UNL     1      28.854  -9.065   4.777  0.00  0.00    +0.000 A 
ATOM     13  C   UNL     1      28.086  -8.942   5.935  0.00  0.00    +0.000 A 
ATOM     14  C   UNL     1      28.250  -8.955   3.524  0.00  0.00    +0.000 A 
ATOM     15  C   UNL     1      26.713  -8.709   5.840  0.00  0.00    +0.000 A 
ATOM     16  C   UNL     1      26.878  -8.723   3.429  0.00  0.00    +0.000 A 
ATOM     17  C   UNL     1      26.109  -8.600   4.586  0.00  0.00    +0.000 A 
BRANCH  15  18
ATOM     18  O   UNL     1      25.972  -8.592   6.976  0.00  0.00    +0.000 OA
ATOM     19  H   UNL     1      25.061  -8.344   6.750  0.00  0.00    +0.000 HD
ENDBRANCH  15  18
BRANCH  17  20
ATOM     20  O   UNL     1      24.770  -8.371   4.481  0.00  0.00    +0.000 OA
ATOM     21  H   UNL     1      24.374  -8.334   5.366  0.00  0.00    +0.000 HD
ENDBRANCH  17  20
ENDBRANCH   5  12
BRANCH   6  22
ATOM     22  O   UNL     1      30.028 -11.392   6.027  0.00  0.00    +0.000 OA
ATOM     23  H   UNL     1      30.591 -12.091   6.396  0.00  0.00    +0.000 HD
ENDBRANCH   6  22
BRANCH   8  24
ATOM     24  O   UNL     1      35.170 -10.602   5.456  0.00  0.00    +0.000 OA
ATOM     25  H   UNL     1      34.764 -11.450   5.223  0.00  0.00    +0.000 HD
ENDBRANCH   8  24
BRANCH  10  26
ATOM     26  O   UNL     1      35.279  -6.470   3.120  0.00  0.00    +0.000 OA
ATOM     27  H   UNL     1      35.467  -5.785   3.784  0.00  0.00    +0.000 HD
ENDBRANCH  10  26
TORSDOF 6
ENDMDL
