MODEL        5
REMARK  Name = 5280863
REMARK  5 active torsions:
REMARK  status: ('A' for Active; 'I' for Inactive)
REMARK    1  A    between atoms: O_2  and  C_11
REMARK    2  A    between atoms: O_3  and  C_13
REMARK    3  A    between atoms: O_5  and  C_15
REMARK    4  A    between atoms: O_6  and  C_21
REMARK    5  A    between atoms: C_9  and  C_12
REMARK                            x       y       z     vdW  Elec       q    Type
REMARK                         _______ _______ _______ _____ _____    ______ ____
ROOT
ATOM      1  O   UNL     1      -0.582  57.677 -24.880  0.00  0.00    +0.000 OA
ATOM      2  O   UNL     1      -1.865  53.852 -25.446  0.00  0.00    +0.000 OA
ATOM      3  C   UNL     1      -1.233  55.542 -23.928  0.00  0.00    +0.000 A 
ATOM      4  C   UNL     1      -0.794  56.858 -23.802  0.00  0.00    +0.000 A 
ATOM      5  C   UNL     1      -0.828  57.178 -26.149  0.00  0.00    +0.000 A 
ATOM      6  C   UNL     1      -1.484  55.001 -25.272  0.00  0.00    +0.000 A 
ATOM      7  C   UNL     1      -1.246  55.925 -26.408  0.00  0.00    +0.000 A 
ATOM      8  C   UNL     1      -1.431  54.752 -22.792  0.00  0.00    +0.000 A 
ATOM      9  C   UNL     1      -0.548  57.394 -22.536  0.00  0.00    +0.000 A 
ATOM     10  C   UNL     1      -0.744  56.609 -21.401  0.00  0.00    +0.000 A 
ATOM     11  C   UNL     1      -1.185  55.291 -21.528  0.00  0.00    +0.000 A 
ENDROOT
BRANCH   5  12
ATOM     12  C   UNL     1      -0.561  58.159 -27.215  0.00  0.00    +0.000 A 
ATOM     13  C   UNL     1      -0.696  57.790 -28.553  0.00  0.00    +0.000 A 
ATOM     14  C   UNL     1      -0.173  59.458 -26.886  0.00  0.00    +0.000 A 
ATOM     15  C   UNL     1      -0.443  58.719 -29.563  0.00  0.00    +0.000 A 
ATOM     16  C   UNL     1       0.079  60.388 -27.895  0.00  0.00    +0.000 A 
ATOM     17  C   UNL     1      -0.055  60.017 -29.234  0.00  0.00    +0.000 A 
BRANCH  17  18
ATOM     18  O   UNL     1       0.191  60.924 -30.219  0.00  0.00    +0.000 OA
ATOM     19  H   UNL     1       1.072  61.310 -30.078  0.00  0.00    +0.000 HD
ENDBRANCH  17  18
ENDBRANCH   5  12
BRANCH   7  20
ATOM     20  O   UNL     1      -1.449  55.448 -27.685  0.00  0.00    +0.000 OA
ATOM     21  H   UNL     1      -1.721  54.517 -27.650  0.00  0.00    +0.000 HD
ENDBRANCH   7  20
BRANCH   8  22
ATOM     22  O   UNL     1      -1.860  53.461 -22.860  0.00  0.00    +0.000 OA
ATOM     23  H   UNL     1      -1.365  52.974 -23.537  0.00  0.00    +0.000 HD
ENDBRANCH   8  22
BRANCH  10  24
ATOM     24  O   UNL     1      -0.505  57.128 -20.165  0.00  0.00    +0.000 OA
ATOM     25  H   UNL     1      -0.437  58.095 -20.237  0.00  0.00    +0.000 HD
ENDBRANCH  10  24
TORSDOF 5
ENDMDL
