MODEL        5
REMARK  Name = 5280863
REMARK  5 active torsions:
REMARK  status: ('A' for Active; 'I' for Inactive)
REMARK    1  A    between atoms: O_2  and  C_11
REMARK    2  A    between atoms: O_3  and  C_13
REMARK    3  A    between atoms: O_5  and  C_15
REMARK    4  A    between atoms: O_6  and  C_21
REMARK    5  A    between atoms: C_9  and  C_12
REMARK                            x       y       z     vdW  Elec       q    Type
REMARK                         _______ _______ _______ _____ _____    ______ ____
ROOT
ATOM      1  O   UNL     1      22.713   9.487  -0.367  0.00  0.00    +0.000 OA
ATOM      2  O   UNL     1      24.694   5.964  -0.878  0.00  0.00    +0.000 OA
ATOM      3  C   UNL     1      22.782   7.080  -0.066  0.00  0.00    +0.000 A 
ATOM      4  C   UNL     1      22.158   8.316   0.079  0.00  0.00    +0.000 A 
ATOM      5  C   UNL     1      23.944   9.436  -1.002  0.00  0.00    +0.000 A 
ATOM      6  C   UNL     1      24.095   7.020  -0.727  0.00  0.00    +0.000 A 
ATOM      7  C   UNL     1      24.654   8.310  -1.198  0.00  0.00    +0.000 A 
ATOM      8  C   UNL     1      22.168   5.918   0.411  0.00  0.00    +0.000 A 
ATOM      9  C   UNL     1      20.912   8.400   0.705  0.00  0.00    +0.000 A 
ATOM     10  C   UNL     1      20.297   7.243   1.181  0.00  0.00    +0.000 A 
ATOM     11  C   UNL     1      20.923   6.005   1.034  0.00  0.00    +0.000 A 
ENDROOT
BRANCH   5  12
ATOM     12  C   UNL     1      24.426  10.760  -1.431  0.00  0.00    +0.000 A 
ATOM     13  C   UNL     1      24.395  11.835  -0.542  0.00  0.00    +0.000 A 
ATOM     14  C   UNL     1      24.914  10.940  -2.725  0.00  0.00    +0.000 A 
ATOM     15  C   UNL     1      24.852  13.089  -0.948  0.00  0.00    +0.000 A 
ATOM     16  C   UNL     1      25.370  12.194  -3.131  0.00  0.00    +0.000 A 
ATOM     17  C   UNL     1      25.339  13.269  -2.241  0.00  0.00    +0.000 A 
BRANCH  17  18
ATOM     18  O   UNL     1      25.785  14.493  -2.637  0.00  0.00    +0.000 OA
ATOM     19  H   UNL     1      26.752  14.458  -2.734  0.00  0.00    +0.000 HD
ENDBRANCH  17  18
ENDBRANCH   5  12
BRANCH   7  20
ATOM     20  O   UNL     1      25.893   8.297  -1.804  0.00  0.00    +0.000 OA
ATOM     21  H   UNL     1      26.282   7.410  -1.740  0.00  0.00    +0.000 HD
ENDBRANCH   7  20
BRANCH   8  22
ATOM     22  O   UNL     1      22.737   4.686   0.293  0.00  0.00    +0.000 OA
ATOM     23  H   UNL     1      23.668   4.714   0.560  0.00  0.00    +0.000 HD
ENDBRANCH   8  22
BRANCH  10  24
ATOM     24  O   UNL     1      19.082   7.321   1.792  0.00  0.00    +0.000 OA
ATOM     25  H   UNL     1      19.160   6.972   2.696  0.00  0.00    +0.000 HD
ENDBRANCH  10  24
TORSDOF 5
ENDMDL
