MODEL        5
REMARK  Name = 5280863
REMARK  5 active torsions:
REMARK  status: ('A' for Active; 'I' for Inactive)
REMARK    1  A    between atoms: O_2  and  C_11
REMARK    2  A    between atoms: O_3  and  C_13
REMARK    3  A    between atoms: O_5  and  C_15
REMARK    4  A    between atoms: O_6  and  C_21
REMARK    5  A    between atoms: C_9  and  C_12
REMARK                            x       y       z     vdW  Elec       q    Type
REMARK                         _______ _______ _______ _____ _____    ______ ____
ROOT
ATOM      1  O   UNL     1      16.649  11.389  11.771  0.00  0.00    +0.000 OA
ATOM      2  O   UNL     1      13.332  12.911   9.958  0.00  0.00    +0.000 OA
ATOM      3  C   UNL     1      15.679  12.689   9.965  0.00  0.00    +0.000 A 
ATOM      4  C   UNL     1      16.773  12.142  10.633  0.00  0.00    +0.000 A 
ATOM      5  C   UNL     1      15.378  11.152  12.272  0.00  0.00    +0.000 A 
ATOM      6  C   UNL     1      14.329  12.452  10.498  0.00  0.00    +0.000 A 
ATOM      7  C   UNL     1      14.243  11.628  11.728  0.00  0.00    +0.000 A 
ATOM      8  C   UNL     1      15.867  13.449   8.807  0.00  0.00    +0.000 A 
ATOM      9  C   UNL     1      18.065  12.354  10.147  0.00  0.00    +0.000 A 
ATOM     10  C   UNL     1      18.256  13.113   8.993  0.00  0.00    +0.000 A 
ATOM     11  C   UNL     1      17.159  13.659   8.324  0.00  0.00    +0.000 A 
ENDROOT
BRANCH   5  12
ATOM     12  C   UNL     1      15.387  10.332  13.496  0.00  0.00    +0.000 A 
ATOM     13  C   UNL     1      14.459  10.579  14.507  0.00  0.00    +0.000 A 
ATOM     14  C   UNL     1      16.322   9.307  13.642  0.00  0.00    +0.000 A 
ATOM     15  C   UNL     1      14.466   9.802  15.666  0.00  0.00    +0.000 A 
ATOM     16  C   UNL     1      16.330   8.530  14.801  0.00  0.00    +0.000 A 
ATOM     17  C   UNL     1      15.401   8.778  15.813  0.00  0.00    +0.000 A 
BRANCH  17  18
ATOM     18  O   UNL     1      15.408   8.020  16.944  0.00  0.00    +0.000 OA
ATOM     19  H   UNL     1      16.282   8.092  17.365  0.00  0.00    +0.000 HD
ENDBRANCH  17  18
ENDBRANCH   5  12
BRANCH   7  20
ATOM     20  O   UNL     1      12.996  11.401  12.270  0.00  0.00    +0.000 OA
ATOM     21  H   UNL     1      12.318  11.842  11.733  0.00  0.00    +0.000 HD
ENDBRANCH   7  20
BRANCH   8  22
ATOM     22  O   UNL     1      14.832  14.005   8.118  0.00  0.00    +0.000 OA
ATOM     23  H   UNL     1      14.113  14.247   8.721  0.00  0.00    +0.000 HD
ENDBRANCH   8  22
BRANCH  10  24
ATOM     24  O   UNL     1      19.514  13.322   8.517  0.00  0.00    +0.000 OA
ATOM     25  H   UNL     1      19.977  13.938   9.109  0.00  0.00    +0.000 HD
ENDBRANCH  10  24
TORSDOF 5
ENDMDL
