MODEL        4
REMARK  Name = 5280343
REMARK  6 active torsions:
REMARK  status: ('A' for Active; 'I' for Inactive)
REMARK    1  A    between atoms: O_2  and  C_12
REMARK    2  A    between atoms: O_3  and  C_14
REMARK    3  A    between atoms: O_5  and  C_16
REMARK    4  A    between atoms: O_6  and  C_20
REMARK    5  A    between atoms: O_7  and  C_22
REMARK    6  A    between atoms: C_10  and  C_11
REMARK                            x       y       z     vdW  Elec       q    Type
REMARK                         _______ _______ _______ _____ _____    ______ ____
ROOT
ATOM      1  O   UNL     1     -29.895  -5.444 -12.792  0.00  0.00    +0.000 OA
ATOM      2  O   UNL     1     -33.207  -7.142 -11.132  0.00  0.00    +0.000 OA
ATOM      3  C   UNL     1     -31.792  -5.262 -11.290  0.00  0.00    +0.000 A 
ATOM      4  C   UNL     1     -30.649  -4.739 -11.891  0.00  0.00    +0.000 A 
ATOM      5  C   UNL     1     -30.295  -6.728 -13.129  0.00  0.00    +0.000 A 
ATOM      6  C   UNL     1     -31.372  -7.351 -12.615  0.00  0.00    +0.000 A 
ATOM      7  C   UNL     1     -32.215  -6.628 -11.632  0.00  0.00    +0.000 A 
ATOM      8  C   UNL     1     -32.521  -4.496 -10.376  0.00  0.00    +0.000 A 
ATOM      9  C   UNL     1     -30.225  -3.446 -11.581  0.00  0.00    +0.000 A 
ATOM     10  C   UNL     1     -30.951  -2.678 -10.669  0.00  0.00    +0.000 A 
ATOM     11  C   UNL     1     -32.096  -3.203 -10.068  0.00  0.00    +0.000 A 
ENDROOT
BRANCH   5  12
ATOM     12  C   UNL     1     -29.399  -7.373 -14.105  0.00  0.00    +0.000 A 
ATOM     13  C   UNL     1     -28.016  -7.260 -13.964  0.00  0.00    +0.000 A 
ATOM     14  C   UNL     1     -29.935  -8.096 -15.171  0.00  0.00    +0.000 A 
ATOM     15  C   UNL     1     -27.169  -7.871 -14.888  0.00  0.00    +0.000 A 
ATOM     16  C   UNL     1     -29.088  -8.707 -16.096  0.00  0.00    +0.000 A 
ATOM     17  C   UNL     1     -27.705  -8.594 -15.955  0.00  0.00    +0.000 A 
BRANCH  15  18
ATOM     18  O   UNL     1     -25.820  -7.754 -14.742  0.00  0.00    +0.000 OA
ATOM     19  H   UNL     1     -25.375  -8.028 -15.561  0.00  0.00    +0.000 HD
ENDBRANCH  15  18
BRANCH  17  20
ATOM     20  O   UNL     1     -26.887  -9.197 -16.863  0.00  0.00    +0.000 OA
ATOM     21  H   UNL     1     -25.976  -8.885 -16.741  0.00  0.00    +0.000 HD
ENDBRANCH  17  20
ENDBRANCH   5  12
BRANCH   6  22
ATOM     22  O   UNL     1     -31.724  -8.641 -12.946  0.00  0.00    +0.000 OA
ATOM     23  H   UNL     1     -32.560  -8.876 -12.513  0.00  0.00    +0.000 HD
ENDBRANCH   6  22
BRANCH   8  24
ATOM     24  O   UNL     1     -33.645  -4.960  -9.761  0.00  0.00    +0.000 OA
ATOM     25  H   UNL     1     -33.511  -5.867  -9.448  0.00  0.00    +0.000 HD
ENDBRANCH   8  24
BRANCH  10  26
ATOM     26  O   UNL     1     -30.541  -1.417 -10.366  0.00  0.00    +0.000 OA
ATOM     27  H   UNL     1     -30.890  -0.802 -11.033  0.00  0.00    +0.000 HD
ENDBRANCH  10  26
TORSDOF 6
ENDMDL
