MODEL        4
REMARK  Name = 5280343
REMARK  6 active torsions:
REMARK  status: ('A' for Active; 'I' for Inactive)
REMARK    1  A    between atoms: O_2  and  C_12
REMARK    2  A    between atoms: O_3  and  C_14
REMARK    3  A    between atoms: O_5  and  C_16
REMARK    4  A    between atoms: O_6  and  C_20
REMARK    5  A    between atoms: O_7  and  C_22
REMARK    6  A    between atoms: C_10  and  C_11
REMARK                            x       y       z     vdW  Elec       q    Type
REMARK                         _______ _______ _______ _____ _____    ______ ____
ROOT
ATOM      1  O   UNL     1     -47.185  34.630 -10.721  0.00  0.00    +0.000 OA
ATOM      2  O   UNL     1     -51.191  34.281 -10.059  0.00  0.00    +0.000 OA
ATOM      3  C   UNL     1     -49.425  34.369 -11.619  0.00  0.00    +0.000 A 
ATOM      4  C   UNL     1     -48.046  34.494 -11.778  0.00  0.00    +0.000 A 
ATOM      5  C   UNL     1     -47.709  34.630  -9.437  0.00  0.00    +0.000 A 
ATOM      6  C   UNL     1     -49.019  34.526  -9.148  0.00  0.00    +0.000 A 
ATOM      7  C   UNL     1     -49.988  34.382 -10.260  0.00  0.00    +0.000 A 
ATOM      8  C   UNL     1     -50.254  34.234 -12.735  0.00  0.00    +0.000 A 
ATOM      9  C   UNL     1     -47.488  34.487 -13.057  0.00  0.00    +0.000 A 
ATOM     10  C   UNL     1     -48.313  34.352 -14.174  0.00  0.00    +0.000 A 
ATOM     11  C   UNL     1     -49.694  34.226 -14.012  0.00  0.00    +0.000 A 
ENDROOT
BRANCH   5  12
ATOM     12  C   UNL     1     -46.678  34.783  -8.396  0.00  0.00    +0.000 A 
ATOM     13  C   UNL     1     -46.263  36.056  -8.005  0.00  0.00    +0.000 A 
ATOM     14  C   UNL     1     -46.117  33.653  -7.799  0.00  0.00    +0.000 A 
ATOM     15  C   UNL     1     -45.288  36.200  -7.018  0.00  0.00    +0.000 A 
ATOM     16  C   UNL     1     -45.141  33.797  -6.813  0.00  0.00    +0.000 A 
ATOM     17  C   UNL     1     -44.726  35.070  -6.423  0.00  0.00    +0.000 A 
BRANCH  15  18
ATOM     18  O   UNL     1     -44.889  37.448  -6.646  0.00  0.00    +0.000 OA
ATOM     19  H   UNL     1     -44.481  37.413  -5.766  0.00  0.00    +0.000 HD
ENDBRANCH  15  18
BRANCH  17  20
ATOM     20  O   UNL     1     -43.774  35.198  -5.457  0.00  0.00    +0.000 OA
ATOM     21  H   UNL     1     -43.716  36.125  -5.174  0.00  0.00    +0.000 HD
ENDBRANCH  17  20
ENDBRANCH   5  12
BRANCH   6  22
ATOM     22  O   UNL     1     -49.510  34.562  -7.861  0.00  0.00    +0.000 OA
ATOM     23  H   UNL     1     -50.475  34.460  -7.873  0.00  0.00    +0.000 HD
ENDBRANCH   6  22
BRANCH   8  24
ATOM     24  O   UNL     1     -51.607  34.108 -12.634  0.00  0.00    +0.000 OA
ATOM     25  H   UNL     1     -51.838  33.420 -11.992  0.00  0.00    +0.000 HD
ENDBRANCH   8  24
BRANCH  10  26
ATOM     26  O   UNL     1     -47.771  34.345 -15.422  0.00  0.00    +0.000 OA
ATOM     27  H   UNL     1     -47.382  35.217 -15.603  0.00  0.00    +0.000 HD
ENDBRANCH  10  26
TORSDOF 6
ENDMDL
