MODEL        5
REMARK  Name = 5280863
REMARK  5 active torsions:
REMARK  status: ('A' for Active; 'I' for Inactive)
REMARK    1  A    between atoms: O_2  and  C_11
REMARK    2  A    between atoms: O_3  and  C_13
REMARK    3  A    between atoms: O_5  and  C_15
REMARK    4  A    between atoms: O_6  and  C_21
REMARK    5  A    between atoms: C_9  and  C_12
REMARK                            x       y       z     vdW  Elec       q    Type
REMARK                         _______ _______ _______ _____ _____    ______ ____
ROOT
ATOM      1  O   UNL     1      22.034  35.705  11.030  0.00  0.00    +0.000 OA
ATOM      2  O   UNL     1      22.322  31.880   9.653  0.00  0.00    +0.000 OA
ATOM      3  C   UNL     1      23.119  34.098   9.570  0.00  0.00    +0.000 A 
ATOM      4  C   UNL     1      22.968  35.386  10.080  0.00  0.00    +0.000 A 
ATOM      5  C   UNL     1      21.211  34.699  11.512  0.00  0.00    +0.000 A 
ATOM      6  C   UNL     1      22.240  33.029  10.068  0.00  0.00    +0.000 A 
ATOM      7  C   UNL     1      21.248  33.419  11.098  0.00  0.00    +0.000 A 
ATOM      8  C   UNL     1      24.090  33.832   8.601  0.00  0.00    +0.000 A 
ATOM      9  C   UNL     1      23.789  36.418   9.622  0.00  0.00    +0.000 A 
ATOM     10  C   UNL     1      24.759  36.156   8.655  0.00  0.00    +0.000 A 
ATOM     11  C   UNL     1      24.910  34.866   8.146  0.00  0.00    +0.000 A 
ENDROOT
BRANCH   5  12
ATOM     12  C   UNL     1      20.253  35.176  12.526  0.00  0.00    +0.000 A 
ATOM     13  C   UNL     1      19.962  34.385  13.637  0.00  0.00    +0.000 A 
ATOM     14  C   UNL     1      19.640  36.420  12.374  0.00  0.00    +0.000 A 
ATOM     15  C   UNL     1      19.056  34.837  14.596  0.00  0.00    +0.000 A 
ATOM     16  C   UNL     1      18.734  36.871  13.334  0.00  0.00    +0.000 A 
ATOM     17  C   UNL     1      18.441  36.079  14.445  0.00  0.00    +0.000 A 
BRANCH  17  18
ATOM     18  O   UNL     1      17.558  36.520  15.382  0.00  0.00    +0.000 OA
ATOM     19  H   UNL     1      17.058  37.269  15.015  0.00  0.00    +0.000 HD
ENDBRANCH  17  18
ENDBRANCH   5  12
BRANCH   7  20
ATOM     20  O   UNL     1      20.392  32.449  11.574  0.00  0.00    +0.000 OA
ATOM     21  H   UNL     1      20.523  31.623  11.081  0.00  0.00    +0.000 HD
ENDBRANCH   7  20
BRANCH   8  22
ATOM     22  O   UNL     1      24.278  32.591   8.070  0.00  0.00    +0.000 OA
ATOM     23  H   UNL     1      24.308  31.922   8.771  0.00  0.00    +0.000 HD
ENDBRANCH   8  22
BRANCH  10  24
ATOM     24  O   UNL     1      25.561  37.161   8.207  0.00  0.00    +0.000 OA
ATOM     25  H   UNL     1      25.737  37.775   8.939  0.00  0.00    +0.000 HD
ENDBRANCH  10  24
TORSDOF 5
ENDMDL
