MODEL        4
REMARK  Name = 5280343
REMARK  6 active torsions:
REMARK  status: ('A' for Active; 'I' for Inactive)
REMARK    1  A    between atoms: O_2  and  C_12
REMARK    2  A    between atoms: O_3  and  C_14
REMARK    3  A    between atoms: O_5  and  C_16
REMARK    4  A    between atoms: O_6  and  C_20
REMARK    5  A    between atoms: O_7  and  C_22
REMARK    6  A    between atoms: C_10  and  C_11
REMARK                            x       y       z     vdW  Elec       q    Type
REMARK                         _______ _______ _______ _____ _____    ______ ____
ROOT
ATOM      1  O   UNL     1      -7.682  -6.591 -25.012  0.00  0.00    +0.000 OA
ATOM      2  O   UNL     1      -8.269  -2.875 -23.447  0.00  0.00    +0.000 OA
ATOM      3  C   UNL     1      -9.066  -5.078 -23.715  0.00  0.00    +0.000 A 
ATOM      4  C   UNL     1      -8.808  -6.326 -24.278  0.00  0.00    +0.000 A 
ATOM      5  C   UNL     1      -6.754  -5.577 -25.192  0.00  0.00    +0.000 A 
ATOM      6  C   UNL     1      -6.888  -4.327 -24.709  0.00  0.00    +0.000 A 
ATOM      7  C   UNL     1      -8.093  -3.993 -23.913  0.00  0.00    +0.000 A 
ATOM      8  C   UNL     1     -10.233  -4.865 -22.977  0.00  0.00    +0.000 A 
ATOM      9  C   UNL     1      -9.717  -7.371 -24.107  0.00  0.00    +0.000 A 
ATOM     10  C   UNL     1     -10.884  -7.162 -23.370  0.00  0.00    +0.000 A 
ATOM     11  C   UNL     1     -11.140  -5.911 -22.807  0.00  0.00    +0.000 A 
ENDROOT
BRANCH   5  12
ATOM     12  C   UNL     1      -5.593  -5.994 -25.997  0.00  0.00    +0.000 A 
ATOM     13  C   UNL     1      -5.626  -7.201 -26.695  0.00  0.00    +0.000 A 
ATOM     14  C   UNL     1      -4.461  -5.181 -26.062  0.00  0.00    +0.000 A 
ATOM     15  C   UNL     1      -4.527  -7.595 -27.459  0.00  0.00    +0.000 A 
ATOM     16  C   UNL     1      -3.362  -5.575 -26.825  0.00  0.00    +0.000 A 
ATOM     17  C   UNL     1      -3.395  -6.782 -27.523  0.00  0.00    +0.000 A 
BRANCH  15  18
ATOM     18  O   UNL     1      -4.569  -8.777 -28.134  0.00  0.00    +0.000 OA
ATOM     19  H   UNL     1      -5.332  -8.785 -28.735  0.00  0.00    +0.000 HD
ENDBRANCH  15  18
BRANCH  17  20
ATOM     20  O   UNL     1      -2.316  -7.156 -28.267  0.00  0.00    +0.000 OA
ATOM     21  H   UNL     1      -2.495  -8.005 -28.701  0.00  0.00    +0.000 HD
ENDBRANCH  17  20
ENDBRANCH   5  12
BRANCH   6  22
ATOM     22  O   UNL     1      -5.962  -3.331 -24.933  0.00  0.00    +0.000 OA
ATOM     23  H   UNL     1      -6.344  -2.469 -24.704  0.00  0.00    +0.000 HD
ENDBRANCH   6  22
BRANCH   8  24
ATOM     24  O   UNL     1     -10.533  -3.665 -22.406  0.00  0.00    +0.000 OA
ATOM     25  H   UNL     1     -10.345  -2.939 -23.021  0.00  0.00    +0.000 HD
ENDBRANCH   8  24
BRANCH  10  26
ATOM     26  O   UNL     1     -11.771  -8.179 -23.201  0.00  0.00    +0.000 OA
ATOM     27  H   UNL     1     -11.281  -9.011 -23.083  0.00  0.00    +0.000 HD
ENDBRANCH  10  26
TORSDOF 6
ENDMDL
