MODEL        4
REMARK  Name = 5280343
REMARK  6 active torsions:
REMARK  status: ('A' for Active; 'I' for Inactive)
REMARK    1  A    between atoms: O_2  and  C_12
REMARK    2  A    between atoms: O_3  and  C_14
REMARK    3  A    between atoms: O_5  and  C_16
REMARK    4  A    between atoms: O_6  and  C_20
REMARK    5  A    between atoms: O_7  and  C_22
REMARK    6  A    between atoms: C_10  and  C_11
REMARK                            x       y       z     vdW  Elec       q    Type
REMARK                         _______ _______ _______ _____ _____    ______ ____
ROOT
ATOM      1  O   UNL     1     -10.584 -20.967   8.396  0.00  0.00    +0.000 OA
ATOM      2  O   UNL     1     -11.518 -18.483  11.490  0.00  0.00    +0.000 OA
ATOM      3  C   UNL     1     -10.923 -18.709   9.219  0.00  0.00    +0.000 A 
ATOM      4  C   UNL     1     -10.611 -19.611   8.203  0.00  0.00    +0.000 A 
ATOM      5  C   UNL     1     -10.895 -21.463   9.653  0.00  0.00    +0.000 A 
ATOM      6  C   UNL     1     -11.205 -20.701  10.718  0.00  0.00    +0.000 A 
ATOM      7  C   UNL     1     -11.241 -19.228  10.558  0.00  0.00    +0.000 A 
ATOM      8  C   UNL     1     -10.933 -17.336   8.963  0.00  0.00    +0.000 A 
ATOM      9  C   UNL     1     -10.304 -19.144   6.925  0.00  0.00    +0.000 A 
ATOM     10  C   UNL     1     -10.313 -17.772   6.666  0.00  0.00    +0.000 A 
ATOM     11  C   UNL     1     -10.627 -16.871   7.684  0.00  0.00    +0.000 A 
ENDROOT
BRANCH   5  12
ATOM     12  C   UNL     1     -10.830 -22.933   9.724  0.00  0.00    +0.000 A 
ATOM     13  C   UNL     1     -10.684 -23.567  10.957  0.00  0.00    +0.000 A 
ATOM     14  C   UNL     1     -10.915 -23.692   8.556  0.00  0.00    +0.000 A 
ATOM     15  C   UNL     1     -10.623 -24.959  11.024  0.00  0.00    +0.000 A 
ATOM     16  C   UNL     1     -10.853 -25.084   8.622  0.00  0.00    +0.000 A 
ATOM     17  C   UNL     1     -10.707 -25.717   9.856  0.00  0.00    +0.000 A 
BRANCH  15  18
ATOM     18  O   UNL     1     -10.479 -25.567  12.234  0.00  0.00    +0.000 OA
ATOM     19  H   UNL     1     -10.742 -26.500  12.166  0.00  0.00    +0.000 HD
ENDBRANCH  15  18
BRANCH  17  20
ATOM     20  O   UNL     1     -10.651 -27.078   9.908  0.00  0.00    +0.000 OA
ATOM     21  H   UNL     1     -10.570 -27.367  10.831  0.00  0.00    +0.000 HD
ENDBRANCH  17  20
ENDBRANCH   5  12
BRANCH   6  22
ATOM     22  O   UNL     1     -11.477 -21.224  11.964  0.00  0.00    +0.000 OA
ATOM     23  H   UNL     1     -11.534 -20.509  12.616  0.00  0.00    +0.000 HD
ENDBRANCH   6  22
BRANCH   8  24
ATOM     24  O   UNL     1     -11.232 -16.412   9.920  0.00  0.00    +0.000 OA
ATOM     25  H   UNL     1     -12.016 -16.683  10.421  0.00  0.00    +0.000 HD
ENDBRANCH   8  24
BRANCH  10  26
ATOM     26  O   UNL     1     -10.014 -17.314   5.420  0.00  0.00    +0.000 OA
ATOM     27  H   UNL     1      -9.904 -18.073   4.822  0.00  0.00    +0.000 HD
ENDBRANCH  10  26
TORSDOF 6
ENDMDL
