MODEL        5
REMARK  Name = 5280863
REMARK  5 active torsions:
REMARK  status: ('A' for Active; 'I' for Inactive)
REMARK    1  A    between atoms: O_2  and  C_11
REMARK    2  A    between atoms: O_3  and  C_13
REMARK    3  A    between atoms: O_5  and  C_15
REMARK    4  A    between atoms: O_6  and  C_21
REMARK    5  A    between atoms: C_9  and  C_12
REMARK                            x       y       z     vdW  Elec       q    Type
REMARK                         _______ _______ _______ _____ _____    ______ ____
ROOT
ATOM      1  O   UNL     1     -46.580  36.329  -8.982  0.00  0.00    +0.000 OA
ATOM      2  O   UNL     1     -45.112  33.870  -6.083  0.00  0.00    +0.000 OA
ATOM      3  C   UNL     1     -44.910  35.895  -7.274  0.00  0.00    +0.000 A 
ATOM      4  C   UNL     1     -45.461  36.689  -8.278  0.00  0.00    +0.000 A 
ATOM      5  C   UNL     1     -47.197  35.127  -8.673  0.00  0.00    +0.000 A 
ATOM      6  C   UNL     1     -45.553  34.612  -6.950  0.00  0.00    +0.000 A 
ATOM      7  C   UNL     1     -46.763  34.266  -7.734  0.00  0.00    +0.000 A 
ATOM      8  C   UNL     1     -43.766  36.314  -6.590  0.00  0.00    +0.000 A 
ATOM      9  C   UNL     1     -44.869  37.910  -8.605  0.00  0.00    +0.000 A 
ATOM     10  C   UNL     1     -43.727  38.332  -7.925  0.00  0.00    +0.000 A 
ATOM     11  C   UNL     1     -43.177  37.536  -6.919  0.00  0.00    +0.000 A 
ENDROOT
BRANCH   5  12
ATOM     12  C   UNL     1     -48.386  34.860  -9.502  0.00  0.00    +0.000 A 
ATOM     13  C   UNL     1     -48.235  34.391 -10.807  0.00  0.00    +0.000 A 
ATOM     14  C   UNL     1     -49.662  35.076  -8.981  0.00  0.00    +0.000 A 
ATOM     15  C   UNL     1     -49.360  34.139 -11.592  0.00  0.00    +0.000 A 
ATOM     16  C   UNL     1     -50.787  34.823  -9.766  0.00  0.00    +0.000 A 
ATOM     17  C   UNL     1     -50.636  34.355 -11.072  0.00  0.00    +0.000 A 
BRANCH  17  18
ATOM     18  O   UNL     1     -51.734  34.108 -11.838  0.00  0.00    +0.000 OA
ATOM     19  H   UNL     1     -51.828  33.147 -11.952  0.00  0.00    +0.000 HD
ENDBRANCH  17  18
ENDBRANCH   5  12
BRANCH   7  20
ATOM     20  O   UNL     1     -47.381  33.061  -7.474  0.00  0.00    +0.000 OA
ATOM     21  H   UNL     1     -46.901  32.588  -6.775  0.00  0.00    +0.000 HD
ENDBRANCH   7  20
BRANCH   8  22
ATOM     22  O   UNL     1     -43.189  35.575  -5.602  0.00  0.00    +0.000 OA
ATOM     23  H   UNL     1     -43.860  35.262  -4.976  0.00  0.00    +0.000 HD
ENDBRANCH   8  22
BRANCH  10  24
ATOM     24  O   UNL     1     -43.147  39.522  -8.242  0.00  0.00    +0.000 OA
ATOM     25  H   UNL     1     -43.795  40.074  -8.712  0.00  0.00    +0.000 HD
ENDBRANCH  10  24
TORSDOF 5
ENDMDL
