MODEL        5
REMARK  Name = 5280863
REMARK  5 active torsions:
REMARK  status: ('A' for Active; 'I' for Inactive)
REMARK    1  A    between atoms: O_2  and  C_11
REMARK    2  A    between atoms: O_3  and  C_13
REMARK    3  A    between atoms: O_5  and  C_15
REMARK    4  A    between atoms: O_6  and  C_21
REMARK    5  A    between atoms: C_9  and  C_12
REMARK                            x       y       z     vdW  Elec       q    Type
REMARK                         _______ _______ _______ _____ _____    ______ ____
ROOT
ATOM      1  O   UNL     1     -29.981  -5.323 -12.645  0.00  0.00    +0.000 OA
ATOM      2  O   UNL     1     -33.331  -6.958 -10.999  0.00  0.00    +0.000 OA
ATOM      3  C   UNL     1     -31.897  -5.094 -11.172  0.00  0.00    +0.000 A 
ATOM      4  C   UNL     1     -30.741  -4.594 -11.768  0.00  0.00    +0.000 A 
ATOM      5  C   UNL     1     -30.389  -6.609 -12.963  0.00  0.00    +0.000 A 
ATOM      6  C   UNL     1     -32.328  -6.463 -11.495  0.00  0.00    +0.000 A 
ATOM      7  C   UNL     1     -31.478  -7.211 -12.452  0.00  0.00    +0.000 A 
ATOM      8  C   UNL     1     -32.631  -4.304 -10.284  0.00  0.00    +0.000 A 
ATOM      9  C   UNL     1     -30.310  -3.298 -11.476  0.00  0.00    +0.000 A 
ATOM     10  C   UNL     1     -31.040  -2.508 -10.590  0.00  0.00    +0.000 A 
ATOM     11  C   UNL     1     -32.199  -3.009  -9.995  0.00  0.00    +0.000 A 
ENDROOT
BRANCH   5  12
ATOM     12  C   UNL     1     -29.485  -7.280 -13.914  0.00  0.00    +0.000 A 
ATOM     13  C   UNL     1     -28.110  -7.287 -13.683  0.00  0.00    +0.000 A 
ATOM     14  C   UNL     1     -30.006  -7.910 -15.045  0.00  0.00    +0.000 A 
ATOM     15  C   UNL     1     -27.255  -7.923 -14.584  0.00  0.00    +0.000 A 
ATOM     16  C   UNL     1     -29.151  -8.546 -15.945  0.00  0.00    +0.000 A 
ATOM     17  C   UNL     1     -27.775  -8.552 -15.714  0.00  0.00    +0.000 A 
BRANCH  17  18
ATOM     18  O   UNL     1     -26.940  -9.173 -16.592  0.00  0.00    +0.000 OA
ATOM     19  H   UNL     1     -26.455  -8.498 -17.096  0.00  0.00    +0.000 HD
ENDBRANCH  17  18
ENDBRANCH   5  12
BRANCH   7  20
ATOM     20  O   UNL     1     -31.838  -8.506 -12.764  0.00  0.00    +0.000 OA
ATOM     21  H   UNL     1     -32.616  -8.765 -12.244  0.00  0.00    +0.000 HD
ENDBRANCH   7  20
BRANCH   8  22
ATOM     22  O   UNL     1     -33.768  -4.746  -9.676  0.00  0.00    +0.000 OA
ATOM     23  H   UNL     1     -34.267  -5.327 -10.269  0.00  0.00    +0.000 HD
ENDBRANCH   8  22
BRANCH  10  24
ATOM     24  O   UNL     1     -30.623  -1.244 -10.304  0.00  0.00    +0.000 OA
ATOM     25  H   UNL     1     -30.964  -0.637 -10.983  0.00  0.00    +0.000 HD
ENDBRANCH  10  24
TORSDOF 5
ENDMDL
