MODEL        5
REMARK  Name = 5280863
REMARK  5 active torsions:
REMARK  status: ('A' for Active; 'I' for Inactive)
REMARK    1  A    between atoms: O_2  and  C_11
REMARK    2  A    between atoms: O_3  and  C_13
REMARK    3  A    between atoms: O_5  and  C_15
REMARK    4  A    between atoms: O_6  and  C_21
REMARK    5  A    between atoms: C_9  and  C_12
REMARK                            x       y       z     vdW  Elec       q    Type
REMARK                         _______ _______ _______ _____ _____    ______ ____
ROOT
ATOM      1  O   UNL     1      22.728  -1.347   8.001  0.00  0.00    +0.000 OA
ATOM      2  O   UNL     1      23.660  -0.490   4.128  0.00  0.00    +0.000 OA
ATOM      3  C   UNL     1      23.365   0.296   6.332  0.00  0.00    +0.000 A 
ATOM      4  C   UNL     1      23.036  -0.063   7.637  0.00  0.00    +0.000 A 
ATOM      5  C   UNL     1      22.757  -2.335   7.029  0.00  0.00    +0.000 A 
ATOM      6  C   UNL     1      23.384  -0.745   5.292  0.00  0.00    +0.000 A 
ATOM      7  C   UNL     1      23.049  -2.121   5.733  0.00  0.00    +0.000 A 
ATOM      8  C   UNL     1      23.670   1.623   6.019  0.00  0.00    +0.000 A 
ATOM      9  C   UNL     1      23.009   0.907   8.641  0.00  0.00    +0.000 A 
ATOM     10  C   UNL     1      23.312   2.233   8.333  0.00  0.00    +0.000 A 
ATOM     11  C   UNL     1      23.642   2.590   7.025  0.00  0.00    +0.000 A 
ENDROOT
BRANCH   5  12
ATOM     12  C   UNL     1      22.406  -3.667   7.551  0.00  0.00    +0.000 A 
ATOM     13  C   UNL     1      22.985  -4.127   8.734  0.00  0.00    +0.000 A 
ATOM     14  C   UNL     1      21.494  -4.468   6.864  0.00  0.00    +0.000 A 
ATOM     15  C   UNL     1      22.653  -5.388   9.229  0.00  0.00    +0.000 A 
ATOM     16  C   UNL     1      21.161  -5.729   7.359  0.00  0.00    +0.000 A 
ATOM     17  C   UNL     1      21.741  -6.189   8.542  0.00  0.00    +0.000 A 
BRANCH  17  18
ATOM     18  O   UNL     1      21.416  -7.419   9.026  0.00  0.00    +0.000 OA
ATOM     19  H   UNL     1      22.163  -8.023   8.877  0.00  0.00    +0.000 HD
ENDBRANCH  17  18
ENDBRANCH   5  12
BRANCH   7  20
ATOM     20  O   UNL     1      23.037  -3.120   4.783  0.00  0.00    +0.000 OA
ATOM     21  H   UNL     1      23.296  -2.759   3.920  0.00  0.00    +0.000 HD
ENDBRANCH   7  20
BRANCH   8  22
ATOM     22  O   UNL     1      23.997   2.025   4.759  0.00  0.00    +0.000 OA
ATOM     23  H   UNL     1      24.521   1.345   4.311  0.00  0.00    +0.000 HD
ENDBRANCH   8  22
BRANCH  10  24
ATOM     24  O   UNL     1      23.287   3.181   9.310  0.00  0.00    +0.000 OA
ATOM     25  H   UNL     1      23.928   2.941  10.000  0.00  0.00    +0.000 HD
ENDBRANCH  10  24
TORSDOF 5
ENDMDL
