MODEL        4
REMARK  Name = 5280343
REMARK  6 active torsions:
REMARK  status: ('A' for Active; 'I' for Inactive)
REMARK    1  A    between atoms: O_2  and  C_12
REMARK    2  A    between atoms: O_3  and  C_14
REMARK    3  A    between atoms: O_5  and  C_16
REMARK    4  A    between atoms: O_6  and  C_20
REMARK    5  A    between atoms: O_7  and  C_22
REMARK    6  A    between atoms: C_10  and  C_11
REMARK                            x       y       z     vdW  Elec       q    Type
REMARK                         _______ _______ _______ _____ _____    ______ ____
ROOT
ATOM      1  O   UNL     1      14.581  39.247  75.398  0.00  0.00    +0.000 OA
ATOM      2  O   UNL     1      11.832  36.510  74.151  0.00  0.00    +0.000 OA
ATOM      3  C   UNL     1      13.445  38.128  73.568  0.00  0.00    +0.000 A 
ATOM      4  C   UNL     1      14.369  39.049  74.059  0.00  0.00    +0.000 A 
ATOM      5  C   UNL     1      13.855  38.489  76.303  0.00  0.00    +0.000 A 
ATOM      6  C   UNL     1      12.928  37.575  75.961  0.00  0.00    +0.000 A 
ATOM      7  C   UNL     1      12.661  37.330  74.523  0.00  0.00    +0.000 A 
ATOM      8  C   UNL     1      13.271  37.970  72.191  0.00  0.00    +0.000 A 
ATOM      9  C   UNL     1      15.124  39.820  73.174  0.00  0.00    +0.000 A 
ATOM     10  C   UNL     1      14.952  39.664  71.797  0.00  0.00    +0.000 A 
ATOM     11  C   UNL     1      14.027  38.741  71.308  0.00  0.00    +0.000 A 
ENDROOT
BRANCH   5  12
ATOM     12  C   UNL     1      14.179  38.801  77.706  0.00  0.00    +0.000 A 
ATOM     13  C   UNL     1      15.105  38.021  78.398  0.00  0.00    +0.000 A 
ATOM     14  C   UNL     1      13.560  39.877  78.342  0.00  0.00    +0.000 A 
ATOM     15  C   UNL     1      15.413  38.317  79.726  0.00  0.00    +0.000 A 
ATOM     16  C   UNL     1      13.867  40.173  79.670  0.00  0.00    +0.000 A 
ATOM     17  C   UNL     1      14.793  39.392  80.362  0.00  0.00    +0.000 A 
BRANCH  15  18
ATOM     18  O   UNL     1      16.318  37.547  80.392  0.00  0.00    +0.000 OA
ATOM     19  H   UNL     1      16.417  37.871  81.302  0.00  0.00    +0.000 HD
ENDBRANCH  15  18
BRANCH  17  20
ATOM     20  O   UNL     1      15.087  39.692  81.659  0.00  0.00    +0.000 OA
ATOM     21  H   UNL     1      15.945  39.309  81.897  0.00  0.00    +0.000 HD
ENDBRANCH  17  20
ENDBRANCH   5  12
BRANCH   6  22
ATOM     22  O   UNL     1      12.199  36.860  76.886  0.00  0.00    +0.000 OA
ATOM     23  H   UNL     1      11.574  36.274  76.432  0.00  0.00    +0.000 HD
ENDBRANCH   6  22
BRANCH   8  24
ATOM     24  O   UNL     1      12.382  37.084  71.661  0.00  0.00    +0.000 OA
ATOM     25  H   UNL     1      12.415  36.241  72.138  0.00  0.00    +0.000 HD
ENDBRANCH   8  24
BRANCH  10  26
ATOM     26  O   UNL     1      15.686  40.414  70.932  0.00  0.00    +0.000 OA
ATOM     27  H   UNL     1      16.617  40.405  71.216  0.00  0.00    +0.000 HD
ENDBRANCH  10  26
TORSDOF 6
ENDMDL
