MODEL        4
REMARK  Name = 5280343
REMARK  6 active torsions:
REMARK  status: ('A' for Active; 'I' for Inactive)
REMARK    1  A    between atoms: O_2  and  C_12
REMARK    2  A    between atoms: O_3  and  C_14
REMARK    3  A    between atoms: O_5  and  C_16
REMARK    4  A    between atoms: O_6  and  C_20
REMARK    5  A    between atoms: O_7  and  C_22
REMARK    6  A    between atoms: C_10  and  C_11
REMARK                            x       y       z     vdW  Elec       q    Type
REMARK                         _______ _______ _______ _____ _____    ______ ____
ROOT
ATOM      1  O   UNL     1      14.328  17.986  19.915  0.00  0.00    +0.000 OA
ATOM      2  O   UNL     1      12.078  19.849  17.074  0.00  0.00    +0.000 OA
ATOM      3  C   UNL     1      13.004  17.838  17.886  0.00  0.00    +0.000 A 
ATOM      4  C   UNL     1      13.783  17.261  18.887  0.00  0.00    +0.000 A 
ATOM      5  C   UNL     1      14.082  19.349  19.967  0.00  0.00    +0.000 A 
ATOM      6  C   UNL     1      13.355  20.028  19.061  0.00  0.00    +0.000 A 
ATOM      7  C   UNL     1      12.750  19.286  17.928  0.00  0.00    +0.000 A 
ATOM      8  C   UNL     1      12.475  17.049  16.862  0.00  0.00    +0.000 A 
ATOM      9  C   UNL     1      14.041  15.890  18.868  0.00  0.00    +0.000 A 
ATOM     10  C   UNL     1      13.514  15.099  17.846  0.00  0.00    +0.000 A 
ATOM     11  C   UNL     1      12.733  15.679  16.845  0.00  0.00    +0.000 A 
ENDROOT
BRANCH   5  12
ATOM     12  C   UNL     1      14.724  20.006  21.119  0.00  0.00    +0.000 A 
ATOM     13  C   UNL     1      15.984  19.589  21.547  0.00  0.00    +0.000 A 
ATOM     14  C   UNL     1      14.071  21.046  21.782  0.00  0.00    +0.000 A 
ATOM     15  C   UNL     1      16.592  20.212  22.637  0.00  0.00    +0.000 A 
ATOM     16  C   UNL     1      14.678  21.668  22.872  0.00  0.00    +0.000 A 
ATOM     17  C   UNL     1      15.938  21.251  23.300  0.00  0.00    +0.000 A 
BRANCH  15  18
ATOM     18  O   UNL     1      17.822  19.796  23.048  0.00  0.00    +0.000 OA
ATOM     19  H   UNL     1      18.123  20.343  23.791  0.00  0.00    +0.000 HD
ENDBRANCH  15  18
BRANCH  17  20
ATOM     20  O   UNL     1      16.523  21.868  24.365  0.00  0.00    +0.000 OA
ATOM     21  H   UNL     1      17.394  21.476  24.534  0.00  0.00    +0.000 HD
ENDBRANCH  17  20
ENDBRANCH   5  12
BRANCH   6  22
ATOM     22  O   UNL     1      13.156  21.390  19.123  0.00  0.00    +0.000 OA
ATOM     23  H   UNL     1      13.007  21.743  18.232  0.00  0.00    +0.000 HD
ENDBRANCH   6  22
BRANCH   8  24
ATOM     24  O   UNL     1      11.708  17.563  15.860  0.00  0.00    +0.000 OA
ATOM     25  H   UNL     1      11.534  18.504  16.013  0.00  0.00    +0.000 HD
ENDBRANCH   8  24
BRANCH  10  26
ATOM     26  O   UNL     1      13.763  13.762  17.826  0.00  0.00    +0.000 OA
ATOM     27  H   UNL     1      13.676  13.410  18.728  0.00  0.00    +0.000 HD
ENDBRANCH  10  26
TORSDOF 6
ENDMDL
