MODEL        4
REMARK  Name = 5280343
REMARK  6 active torsions:
REMARK  status: ('A' for Active; 'I' for Inactive)
REMARK    1  A    between atoms: O_2  and  C_12
REMARK    2  A    between atoms: O_3  and  C_14
REMARK    3  A    between atoms: O_5  and  C_16
REMARK    4  A    between atoms: O_6  and  C_20
REMARK    5  A    between atoms: O_7  and  C_22
REMARK    6  A    between atoms: C_10  and  C_11
REMARK                            x       y       z     vdW  Elec       q    Type
REMARK                         _______ _______ _______ _____ _____    ______ ____
ROOT
ATOM      1  O   UNL     1      29.774  36.581  15.012  0.00  0.00    +0.000 OA
ATOM      2  O   UNL     1      31.076  39.532  12.522  0.00  0.00    +0.000 OA
ATOM      3  C   UNL     1      29.688  38.906  14.323  0.00  0.00    +0.000 A 
ATOM      4  C   UNL     1      29.283  37.853  15.141  0.00  0.00    +0.000 A 
ATOM      5  C   UNL     1      30.724  36.334  14.034  0.00  0.00    +0.000 A 
ATOM      6  C   UNL     1      31.193  37.258  13.175  0.00  0.00    +0.000 A 
ATOM      7  C   UNL     1      30.686  38.648  13.274  0.00  0.00    +0.000 A 
ATOM      8  C   UNL     1      29.151  40.184  14.500  0.00  0.00    +0.000 A 
ATOM      9  C   UNL     1      28.335  38.072  16.141  0.00  0.00    +0.000 A 
ATOM     10  C   UNL     1      27.797  39.347  16.322  0.00  0.00    +0.000 A 
ATOM     11  C   UNL     1      28.205  40.400  15.501  0.00  0.00    +0.000 A 
ENDROOT
BRANCH   5  12
ATOM     12  C   UNL     1      31.167  34.929  14.003  0.00  0.00    +0.000 A 
ATOM     13  C   UNL     1      32.519  34.620  14.153  0.00  0.00    +0.000 A 
ATOM     14  C   UNL     1      30.233  33.907  13.825  0.00  0.00    +0.000 A 
ATOM     15  C   UNL     1      32.937  33.289  14.125  0.00  0.00    +0.000 A 
ATOM     16  C   UNL     1      30.652  32.577  13.796  0.00  0.00    +0.000 A 
ATOM     17  C   UNL     1      32.004  32.268  13.946  0.00  0.00    +0.000 A 
BRANCH  15  18
ATOM     18  O   UNL     1      34.260  32.999  14.271  0.00  0.00    +0.000 OA
ATOM     19  H   UNL     1      34.386  32.036  14.279  0.00  0.00    +0.000 HD
ENDBRANCH  15  18
BRANCH  17  20
ATOM     20  O   UNL     1      32.400  30.965  13.919  0.00  0.00    +0.000 OA
ATOM     21  H   UNL     1      33.359  30.911  14.057  0.00  0.00    +0.000 HD
ENDBRANCH  17  20
ENDBRANCH   5  12
BRANCH   6  22
ATOM     22  O   UNL     1      32.115  36.973  12.191  0.00  0.00    +0.000 OA
ATOM     23  H   UNL     1      32.299  37.771  11.671  0.00  0.00    +0.000 HD
ENDBRANCH   6  22
BRANCH   8  24
ATOM     24  O   UNL     1      29.513  41.246  13.728  0.00  0.00    +0.000 OA
ATOM     25  H   UNL     1      29.594  40.980  12.799  0.00  0.00    +0.000 HD
ENDBRANCH   8  24
BRANCH  10  26
ATOM     26  O   UNL     1      26.873  39.563  17.297  0.00  0.00    +0.000 OA
ATOM     27  H   UNL     1      27.330  39.655  18.150  0.00  0.00    +0.000 HD
ENDBRANCH  10  26
TORSDOF 6
ENDMDL
