MODEL        4
REMARK  Name = 5280343
REMARK  6 active torsions:
REMARK  status: ('A' for Active; 'I' for Inactive)
REMARK    1  A    between atoms: O_2  and  C_12
REMARK    2  A    between atoms: O_3  and  C_14
REMARK    3  A    between atoms: O_5  and  C_16
REMARK    4  A    between atoms: O_6  and  C_20
REMARK    5  A    between atoms: O_7  and  C_22
REMARK    6  A    between atoms: C_10  and  C_11
REMARK                            x       y       z     vdW  Elec       q    Type
REMARK                         _______ _______ _______ _____ _____    ______ ____
ROOT
ATOM      1  O   UNL     1     -14.775  -7.687  -6.401  0.00  0.00    +0.000 OA
ATOM      2  O   UNL     1     -17.271  -9.806  -8.828  0.00  0.00    +0.000 OA
ATOM      3  C   UNL     1     -15.777  -9.814  -7.004  0.00  0.00    +0.000 A 
ATOM      4  C   UNL     1     -14.938  -9.034  -6.209  0.00  0.00    +0.000 A 
ATOM      5  C   UNL     1     -15.486  -7.072  -7.420  0.00  0.00    +0.000 A 
ATOM      6  C   UNL     1     -16.320  -7.711  -8.261  0.00  0.00    +0.000 A 
ATOM      7  C   UNL     1     -16.523  -9.171  -8.095  0.00  0.00    +0.000 A 
ATOM      8  C   UNL     1     -15.902 -11.184  -6.762  0.00  0.00    +0.000 A 
ATOM      9  C   UNL     1     -14.217  -9.621  -5.169  0.00  0.00    +0.000 A 
ATOM     10  C   UNL     1     -14.340 -10.990  -4.925  0.00  0.00    +0.000 A 
ATOM     11  C   UNL     1     -15.181 -11.769  -5.721  0.00  0.00    +0.000 A 
ENDROOT
BRANCH   5  12
ATOM     12  C   UNL     1     -15.220  -5.627  -7.516  0.00  0.00    +0.000 A 
ATOM     13  C   UNL     1     -15.328  -4.820  -6.383  0.00  0.00    +0.000 A 
ATOM     14  C   UNL     1     -14.859  -5.064  -8.741  0.00  0.00    +0.000 A 
ATOM     15  C   UNL     1     -15.075  -3.451  -6.474  0.00  0.00    +0.000 A 
ATOM     16  C   UNL     1     -14.607  -3.695  -8.832  0.00  0.00    +0.000 A 
ATOM     17  C   UNL     1     -14.715  -2.889  -7.699  0.00  0.00    +0.000 A 
BRANCH  15  18
ATOM     18  O   UNL     1     -15.185  -2.673  -5.361  0.00  0.00    +0.000 OA
ATOM     19  H   UNL     1     -14.619  -1.890  -5.452  0.00  0.00    +0.000 HD
ENDBRANCH  15  18
BRANCH  17  20
ATOM     20  O   UNL     1     -14.464  -1.553  -7.800  0.00  0.00    +0.000 OA
ATOM     21  H   UNL     1     -14.424  -1.160  -6.914  0.00  0.00    +0.000 HD
ENDBRANCH  17  20
ENDBRANCH   5  12
BRANCH   6  22
ATOM     22  O   UNL     1     -16.987  -7.076  -9.286  0.00  0.00    +0.000 OA
ATOM     23  H   UNL     1     -17.175  -7.708  -9.998  0.00  0.00    +0.000 HD
ENDBRANCH   6  22
BRANCH   8  24
ATOM     24  O   UNL     1     -16.708 -11.991  -7.509  0.00  0.00    +0.000 OA
ATOM     25  H   UNL     1     -17.445 -11.484  -7.882  0.00  0.00    +0.000 HD
ENDBRANCH   8  24
BRANCH  10  26
ATOM     26  O   UNL     1     -13.639 -11.565  -3.912  0.00  0.00    +0.000 OA
ATOM     27  H   UNL     1     -13.798 -12.524  -3.921  0.00  0.00    +0.000 HD
ENDBRANCH  10  26
TORSDOF 6
ENDMDL
