MODEL        5
REMARK  Name = 5280863
REMARK  5 active torsions:
REMARK  status: ('A' for Active; 'I' for Inactive)
REMARK    1  A    between atoms: O_2  and  C_11
REMARK    2  A    between atoms: O_3  and  C_13
REMARK    3  A    between atoms: O_5  and  C_15
REMARK    4  A    between atoms: O_6  and  C_21
REMARK    5  A    between atoms: C_9  and  C_12
REMARK                            x       y       z     vdW  Elec       q    Type
REMARK                         _______ _______ _______ _____ _____    ______ ____
ROOT
ATOM      1  O   UNL     1      36.821 -10.380  -8.529  0.00  0.00    +0.000 OA
ATOM      2  O   UNL     1      34.026 -12.404  -6.361  0.00  0.00    +0.000 OA
ATOM      3  C   UNL     1      36.225 -11.564  -6.495  0.00  0.00    +0.000 A 
ATOM      4  C   UNL     1      37.135 -10.866  -7.286  0.00  0.00    +0.000 A 
ATOM      5  C   UNL     1      35.538 -10.583  -9.013  0.00  0.00    +0.000 A 
ATOM      6  C   UNL     1      34.866 -11.794  -7.008  0.00  0.00    +0.000 A 
ATOM      7  C   UNL     1      34.570 -11.246  -8.354  0.00  0.00    +0.000 A 
ATOM      8  C   UNL     1      36.603 -12.036  -5.235  0.00  0.00    +0.000 A 
ATOM      9  C   UNL     1      38.432 -10.636  -6.822  0.00  0.00    +0.000 A 
ATOM     10  C   UNL     1      38.812 -11.106  -5.566  0.00  0.00    +0.000 A 
ATOM     11  C   UNL     1      37.899 -11.805  -4.774  0.00  0.00    +0.000 A 
ENDROOT
BRANCH   5  12
ATOM     12  C   UNL     1      35.333 -10.013 -10.356  0.00  0.00    +0.000 A 
ATOM     13  C   UNL     1      35.009 -10.847 -11.426  0.00  0.00    +0.000 A 
ATOM     14  C   UNL     1      35.462  -8.638 -10.558  0.00  0.00    +0.000 A 
ATOM     15  C   UNL     1      34.815 -10.307 -12.698  0.00  0.00    +0.000 A 
ATOM     16  C   UNL     1      35.268  -8.098 -11.829  0.00  0.00    +0.000 A 
ATOM     17  C   UNL     1      34.945  -8.934 -12.900  0.00  0.00    +0.000 A 
BRANCH  17  18
ATOM     18  O   UNL     1      34.755  -8.407 -14.140  0.00  0.00    +0.000 OA
ATOM     19  H   UNL     1      34.349  -7.528 -14.050  0.00  0.00    +0.000 HD
ENDBRANCH  17  18
ENDBRANCH   5  12
BRANCH   7  20
ATOM     20  O   UNL     1      33.313 -11.460  -8.878  0.00  0.00    +0.000 OA
ATOM     21  H   UNL     1      32.761 -11.929  -8.232  0.00  0.00    +0.000 HD
ENDBRANCH   7  20
BRANCH   8  22
ATOM     22  O   UNL     1      35.752 -12.724  -4.423  0.00  0.00    +0.000 OA
ATOM     23  H   UNL     1      34.890 -12.282  -4.382  0.00  0.00    +0.000 HD
ENDBRANCH   8  22
BRANCH  10  24
ATOM     24  O   UNL     1      40.076 -10.884  -5.111  0.00  0.00    +0.000 OA
ATOM     25  H   UNL     1      40.129  -9.981  -4.755  0.00  0.00    +0.000 HD
ENDBRANCH  10  24
TORSDOF 5
ENDMDL
