MODEL        4
REMARK  Name = 5280343
REMARK  6 active torsions:
REMARK  status: ('A' for Active; 'I' for Inactive)
REMARK    1  A    between atoms: O_2  and  C_12
REMARK    2  A    between atoms: O_3  and  C_14
REMARK    3  A    between atoms: O_5  and  C_16
REMARK    4  A    between atoms: O_6  and  C_20
REMARK    5  A    between atoms: O_7  and  C_22
REMARK    6  A    between atoms: C_10  and  C_11
REMARK                            x       y       z     vdW  Elec       q    Type
REMARK                         _______ _______ _______ _____ _____    ______ ____
ROOT
ATOM      1  O   UNL     1      37.041 -10.328  -8.542  0.00  0.00    +0.000 OA
ATOM      2  O   UNL     1      34.395 -12.453  -6.285  0.00  0.00    +0.000 OA
ATOM      3  C   UNL     1      36.538 -11.485  -6.469  0.00  0.00    +0.000 A 
ATOM      4  C   UNL     1      37.397 -10.756  -7.290  0.00  0.00    +0.000 A 
ATOM      5  C   UNL     1      35.768 -10.621  -9.006  0.00  0.00    +0.000 A 
ATOM      6  C   UNL     1      34.849 -11.323  -8.317  0.00  0.00    +0.000 A 
ATOM      7  C   UNL     1      35.191 -11.811  -6.960  0.00  0.00    +0.000 A 
ATOM      8  C   UNL     1      36.956 -11.896  -5.201  0.00  0.00    +0.000 A 
ATOM      9  C   UNL     1      38.681 -10.436  -6.848  0.00  0.00    +0.000 A 
ATOM     10  C   UNL     1      39.101 -10.845  -5.582  0.00  0.00    +0.000 A 
ATOM     11  C   UNL     1      38.240 -11.575  -4.760  0.00  0.00    +0.000 A 
ENDROOT
BRANCH   5  12
ATOM     12  C   UNL     1      35.516 -10.104 -10.362  0.00  0.00    +0.000 A 
ATOM     13  C   UNL     1      35.489  -8.728 -10.590  0.00  0.00    +0.000 A 
ATOM     14  C   UNL     1      35.306 -10.991 -11.418  0.00  0.00    +0.000 A 
ATOM     15  C   UNL     1      35.252  -8.239 -11.875  0.00  0.00    +0.000 A 
ATOM     16  C   UNL     1      35.068 -10.501 -12.703  0.00  0.00    +0.000 A 
ATOM     17  C   UNL     1      35.040  -9.126 -12.931  0.00  0.00    +0.000 A 
BRANCH  15  18
ATOM     18  O   UNL     1      35.225  -6.894 -12.086  0.00  0.00    +0.000 OA
ATOM     19  H   UNL     1      35.024  -6.711 -13.018  0.00  0.00    +0.000 HD
ENDBRANCH  15  18
BRANCH  17  20
ATOM     20  O   UNL     1      34.809  -8.659 -14.190  0.00  0.00    +0.000 OA
ATOM     21  H   UNL     1      34.715  -7.694 -14.170  0.00  0.00    +0.000 HD
ENDBRANCH  17  20
ENDBRANCH   5  12
BRANCH   6  22
ATOM     22  O   UNL     1      33.602 -11.626  -8.820  0.00  0.00    +0.000 OA
ATOM     23  H   UNL     1      33.099 -12.138  -8.167  0.00  0.00    +0.000 HD
ENDBRANCH   6  22
BRANCH   8  24
ATOM     24  O   UNL     1      36.156 -12.610  -4.359  0.00  0.00    +0.000 OA
ATOM     25  H   UNL     1      35.266 -12.229  -4.331  0.00  0.00    +0.000 HD
ENDBRANCH   8  24
BRANCH  10  26
ATOM     26  O   UNL     1      40.353 -10.534  -5.148  0.00  0.00    +0.000 OA
ATOM     27  H   UNL     1      40.339  -9.645  -4.755  0.00  0.00    +0.000 HD
ENDBRANCH  10  26
TORSDOF 6
ENDMDL
