MODEL        4
REMARK  Name = 5280343
REMARK  6 active torsions:
REMARK  status: ('A' for Active; 'I' for Inactive)
REMARK    1  A    between atoms: O_2  and  C_12
REMARK    2  A    between atoms: O_3  and  C_14
REMARK    3  A    between atoms: O_5  and  C_16
REMARK    4  A    between atoms: O_6  and  C_20
REMARK    5  A    between atoms: O_7  and  C_22
REMARK    6  A    between atoms: C_10  and  C_11
REMARK                            x       y       z     vdW  Elec       q    Type
REMARK                         _______ _______ _______ _____ _____    ______ ____
ROOT
ATOM      1  O   UNL     1      21.033  -1.147   5.892  0.00  0.00    +0.000 OA
ATOM      2  O   UNL     1      24.887  -2.407   5.475  0.00  0.00    +0.000 OA
ATOM      3  C   UNL     1      23.082  -1.172   4.591  0.00  0.00    +0.000 A 
ATOM      4  C   UNL     1      21.761  -0.776   4.792  0.00  0.00    +0.000 A 
ATOM      5  C   UNL     1      21.643  -1.940   6.852  0.00  0.00    +0.000 A 
ATOM      6  C   UNL     1      22.907  -2.396   6.775  0.00  0.00    +0.000 A 
ATOM      7  C   UNL     1      23.731  -2.024   5.600  0.00  0.00    +0.000 A 
ATOM      8  C   UNL     1      23.775  -0.764   3.448  0.00  0.00    +0.000 A 
ATOM      9  C   UNL     1      21.123   0.030   3.849  0.00  0.00    +0.000 A 
ATOM     10  C   UNL     1      21.812   0.440   2.706  0.00  0.00    +0.000 A 
ATOM     11  C   UNL     1      23.135   0.043   2.507  0.00  0.00    +0.000 A 
ENDROOT
BRANCH   5  12
ATOM     12  C   UNL     1      20.752  -2.265   7.980  0.00  0.00    +0.000 A 
ATOM     13  C   UNL     1      20.354  -3.583   8.197  0.00  0.00    +0.000 A 
ATOM     14  C   UNL     1      20.307  -1.252   8.831  0.00  0.00    +0.000 A 
ATOM     15  C   UNL     1      19.512  -3.891   9.266  0.00  0.00    +0.000 A 
ATOM     16  C   UNL     1      19.464  -1.559   9.899  0.00  0.00    +0.000 A 
ATOM     17  C   UNL     1      19.066  -2.878  10.116  0.00  0.00    +0.000 A 
BRANCH  15  18
ATOM     18  O   UNL     1      19.128  -5.182   9.468  0.00  0.00    +0.000 OA
ATOM     19  H   UNL     1      18.240  -5.322   9.102  0.00  0.00    +0.000 HD
ENDBRANCH  15  18
BRANCH  17  20
ATOM     20  O   UNL     1      18.244  -3.166  11.164  0.00  0.00    +0.000 OA
ATOM     21  H   UNL     1      18.772  -3.310  11.965  0.00  0.00    +0.000 HD
ENDBRANCH  17  20
ENDBRANCH   5  12
BRANCH   6  22
ATOM     22  O   UNL     1      23.473  -3.210   7.732  0.00  0.00    +0.000 OA
ATOM     23  H   UNL     1      24.417  -3.332   7.544  0.00  0.00    +0.000 HD
ENDBRANCH   6  22
BRANCH   8  24
ATOM     24  O   UNL     1      25.067  -1.122   3.205  0.00  0.00    +0.000 OA
ATOM     25  H   UNL     1      25.213  -2.050   3.445  0.00  0.00    +0.000 HD
ENDBRANCH   8  24
BRANCH  10  26
ATOM     26  O   UNL     1      21.192   1.226   1.785  0.00  0.00    +0.000 OA
ATOM     27  H   UNL     1      20.712   1.935   2.246  0.00  0.00    +0.000 HD
ENDBRANCH  10  26
TORSDOF 6
ENDMDL
