MODEL        5
REMARK  Name = 5280863
REMARK  5 active torsions:
REMARK  status: ('A' for Active; 'I' for Inactive)
REMARK    1  A    between atoms: O_2  and  C_11
REMARK    2  A    between atoms: O_3  and  C_13
REMARK    3  A    between atoms: O_5  and  C_15
REMARK    4  A    between atoms: O_6  and  C_21
REMARK    5  A    between atoms: C_9  and  C_12
REMARK                            x       y       z     vdW  Elec       q    Type
REMARK                         _______ _______ _______ _____ _____    ______ ____
ROOT
ATOM      1  O   UNL     1       1.555  15.523  21.132  0.00  0.00    +0.000 OA
ATOM      2  O   UNL     1       0.322  13.647  17.731  0.00  0.00    +0.000 OA
ATOM      3  C   UNL     1       2.084  14.115  19.227  0.00  0.00    +0.000 A 
ATOM      4  C   UNL     1       2.443  14.782  20.396  0.00  0.00    +0.000 A 
ATOM      5  C   UNL     1       0.241  15.601  20.699  0.00  0.00    +0.000 A 
ATOM      6  C   UNL     1       0.695  14.206  18.754  0.00  0.00    +0.000 A 
ATOM      7  C   UNL     1      -0.231  15.014  19.584  0.00  0.00    +0.000 A 
ATOM      8  C   UNL     1       3.034  13.375  18.517  0.00  0.00    +0.000 A 
ATOM      9  C   UNL     1       3.756  14.713  20.865  0.00  0.00    +0.000 A 
ATOM     10  C   UNL     1       4.706  13.975  20.160  0.00  0.00    +0.000 A 
ATOM     11  C   UNL     1       4.346  13.307  18.988  0.00  0.00    +0.000 A 
ENDROOT
BRANCH   5  12
ATOM     12  C   UNL     1      -0.606  16.427  21.578  0.00  0.00    +0.000 A 
ATOM     13  C   UNL     1      -1.938  16.075  21.796  0.00  0.00    +0.000 A 
ATOM     14  C   UNL     1      -0.075  17.561  22.193  0.00  0.00    +0.000 A 
ATOM     15  C   UNL     1      -2.739  16.856  22.628  0.00  0.00    +0.000 A 
ATOM     16  C   UNL     1      -0.876  18.342  23.026  0.00  0.00    +0.000 A 
ATOM     17  C   UNL     1      -2.209  17.990  23.243  0.00  0.00    +0.000 A 
BRANCH  17  18
ATOM     18  O   UNL     1      -2.991  18.752  24.056  0.00  0.00    +0.000 OA
ATOM     19  H   UNL     1      -3.455  18.170  24.681  0.00  0.00    +0.000 HD
ENDBRANCH  17  18
ENDBRANCH   5  12
BRANCH   7  20
ATOM     20  O   UNL     1      -1.538  15.139  19.163  0.00  0.00    +0.000 OA
ATOM     21  H   UNL     1      -1.674  14.622  18.352  0.00  0.00    +0.000 HD
ENDBRANCH   7  20
BRANCH   8  22
ATOM     22  O   UNL     1       2.735  12.705  17.369  0.00  0.00    +0.000 OA
ATOM     23  H   UNL     1       2.224  13.270  16.769  0.00  0.00    +0.000 HD
ENDBRANCH   8  22
BRANCH  10  24
ATOM     24  O   UNL     1       5.988  13.906  20.613  0.00  0.00    +0.000 OA
ATOM     25  H   UNL     1       6.461  14.711  20.345  0.00  0.00    +0.000 HD
ENDBRANCH  10  24
TORSDOF 5
ENDMDL
