MODEL        4
REMARK  Name = 5280343
REMARK  6 active torsions:
REMARK  status: ('A' for Active; 'I' for Inactive)
REMARK    1  A    between atoms: O_2  and  C_12
REMARK    2  A    between atoms: O_3  and  C_14
REMARK    3  A    between atoms: O_5  and  C_16
REMARK    4  A    between atoms: O_6  and  C_20
REMARK    5  A    between atoms: O_7  and  C_22
REMARK    6  A    between atoms: C_10  and  C_11
REMARK                            x       y       z     vdW  Elec       q    Type
REMARK                         _______ _______ _______ _____ _____    ______ ____
ROOT
ATOM      1  O   UNL     1     -41.690  30.122   5.186  0.00  0.00    +0.000 OA
ATOM      2  O   UNL     1     -40.292  33.326   7.281  0.00  0.00    +0.000 OA
ATOM      3  C   UNL     1     -39.998  31.075   6.641  0.00  0.00    +0.000 A 
ATOM      4  C   UNL     1     -40.529  30.017   5.905  0.00  0.00    +0.000 A 
ATOM      5  C   UNL     1     -42.358  31.336   5.180  0.00  0.00    +0.000 A 
ATOM      6  C   UNL     1     -41.957  32.431   5.853  0.00  0.00    +0.000 A 
ATOM      7  C   UNL     1     -40.708  32.363   6.650  0.00  0.00    +0.000 A 
ATOM      8  C   UNL     1     -38.809  30.910   7.357  0.00  0.00    +0.000 A 
ATOM      9  C   UNL     1     -39.875  28.785   5.883  0.00  0.00    +0.000 A 
ATOM     10  C   UNL     1     -38.688  28.616   6.597  0.00  0.00    +0.000 A 
ATOM     11  C   UNL     1     -38.157  29.677   7.332  0.00  0.00    +0.000 A 
ENDROOT
BRANCH   5  12
ATOM     12  C   UNL     1     -43.589  31.313   4.370  0.00  0.00    +0.000 A 
ATOM     13  C   UNL     1     -44.834  31.254   4.994  0.00  0.00    +0.000 A 
ATOM     14  C   UNL     1     -43.507  31.350   2.977  0.00  0.00    +0.000 A 
ATOM     15  C   UNL     1     -45.999  31.232   4.227  0.00  0.00    +0.000 A 
ATOM     16  C   UNL     1     -44.672  31.327   2.210  0.00  0.00    +0.000 A 
ATOM     17  C   UNL     1     -45.918  31.268   2.834  0.00  0.00    +0.000 A 
BRANCH  15  18
ATOM     18  O   UNL     1     -47.210  31.173   4.847  0.00  0.00    +0.000 OA
ATOM     19  H   UNL     1     -47.919  31.176   4.183  0.00  0.00    +0.000 HD
ENDBRANCH  15  18
BRANCH  17  20
ATOM     20  O   UNL     1     -47.048  31.250   2.074  0.00  0.00    +0.000 OA
ATOM     21  H   UNL     1     -47.828  31.186   2.648  0.00  0.00    +0.000 HD
ENDBRANCH  17  20
ENDBRANCH   5  12
BRANCH   6  22
ATOM     22  O   UNL     1     -42.662  33.615   5.853  0.00  0.00    +0.000 OA
ATOM     23  H   UNL     1     -42.197  34.275   6.391  0.00  0.00    +0.000 HD
ENDBRANCH   6  22
BRANCH   8  24
ATOM     24  O   UNL     1     -38.248  31.911   8.091  0.00  0.00    +0.000 OA
ATOM     25  H   UNL     1     -38.241  32.739   7.587  0.00  0.00    +0.000 HD
ENDBRANCH   8  24
BRANCH  10  26
ATOM     26  O   UNL     1     -38.048  27.416   6.576  0.00  0.00    +0.000 OA
ATOM     27  H   UNL     1     -38.246  26.966   5.737  0.00  0.00    +0.000 HD
ENDBRANCH  10  26
TORSDOF 6
ENDMDL
