MODEL        5
REMARK  Name = 5280863
REMARK  5 active torsions:
REMARK  status: ('A' for Active; 'I' for Inactive)
REMARK    1  A    between atoms: O_2  and  C_11
REMARK    2  A    between atoms: O_3  and  C_13
REMARK    3  A    between atoms: O_5  and  C_15
REMARK    4  A    between atoms: O_6  and  C_21
REMARK    5  A    between atoms: C_9  and  C_12
REMARK                            x       y       z     vdW  Elec       q    Type
REMARK                         _______ _______ _______ _____ _____    ______ ____
ROOT
ATOM      1  O   UNL     1      29.662  36.501  15.022  0.00  0.00    +0.000 OA
ATOM      2  O   UNL     1      31.079  39.300  12.421  0.00  0.00    +0.000 OA
ATOM      3  C   UNL     1      29.669  38.801  14.244  0.00  0.00    +0.000 A 
ATOM      4  C   UNL     1      29.223  37.797  15.101  0.00  0.00    +0.000 A 
ATOM      5  C   UNL     1      30.600  36.179  14.054  0.00  0.00    +0.000 A 
ATOM      6  C   UNL     1      30.655  38.463  13.206  0.00  0.00    +0.000 A 
ATOM      7  C   UNL     1      31.104  37.050  13.161  0.00  0.00    +0.000 A 
ATOM      8  C   UNL     1      29.185  40.105  14.372  0.00  0.00    +0.000 A 
ATOM      9  C   UNL     1      28.287  38.092  16.094  0.00  0.00    +0.000 A 
ATOM     10  C   UNL     1      27.801  39.393  16.225  0.00  0.00    +0.000 A 
ATOM     11  C   UNL     1      28.250  40.397  15.366  0.00  0.00    +0.000 A 
ENDROOT
BRANCH   5  12
ATOM     12  C   UNL     1      30.985  34.757  14.076  0.00  0.00    +0.000 A 
ATOM     13  C   UNL     1      30.135  33.795  13.530  0.00  0.00    +0.000 A 
ATOM     14  C   UNL     1      32.201  34.372  14.643  0.00  0.00    +0.000 A 
ATOM     15  C   UNL     1      30.500  32.449  13.552  0.00  0.00    +0.000 A 
ATOM     16  C   UNL     1      32.565  33.026  14.664  0.00  0.00    +0.000 A 
ATOM     17  C   UNL     1      31.714  32.064  14.118  0.00  0.00    +0.000 A 
BRANCH  17  18
ATOM     18  O   UNL     1      32.071  30.750  14.139  0.00  0.00    +0.000 OA
ATOM     19  H   UNL     1      33.031  30.687  14.278  0.00  0.00    +0.000 HD
ENDBRANCH  17  18
ENDBRANCH   5  12
BRANCH   7  20
ATOM     20  O   UNL     1      32.012  36.690  12.187  0.00  0.00    +0.000 OA
ATOM     21  H   UNL     1      32.233  37.461  11.641  0.00  0.00    +0.000 HD
ENDBRANCH   7  20
BRANCH   8  22
ATOM     22  O   UNL     1      29.589  41.122  13.560  0.00  0.00    +0.000 OA
ATOM     23  H   UNL     1      29.898  40.775  12.709  0.00  0.00    +0.000 HD
ENDBRANCH   8  22
BRANCH  10  24
ATOM     24  O   UNL     1      26.888  39.684  17.192  0.00  0.00    +0.000 OA
ATOM     25  H   UNL     1      27.337  39.707  18.053  0.00  0.00    +0.000 HD
ENDBRANCH  10  24
TORSDOF 5
ENDMDL
