MODEL        5
REMARK  Name = 5280863
REMARK  5 active torsions:
REMARK  status: ('A' for Active; 'I' for Inactive)
REMARK    1  A    between atoms: O_2  and  C_11
REMARK    2  A    between atoms: O_3  and  C_13
REMARK    3  A    between atoms: O_5  and  C_15
REMARK    4  A    between atoms: O_6  and  C_21
REMARK    5  A    between atoms: C_9  and  C_12
REMARK                            x       y       z     vdW  Elec       q    Type
REMARK                         _______ _______ _______ _____ _____    ______ ____
ROOT
ATOM      1  O   UNL     1     -42.575  30.977   4.720  0.00  0.00    +0.000 OA
ATOM      2  O   UNL     1     -43.379  34.969   4.886  0.00  0.00    +0.000 OA
ATOM      3  C   UNL     1     -43.947  32.852   4.015  0.00  0.00    +0.000 A 
ATOM      4  C   UNL     1     -43.619  31.498   4.001  0.00  0.00    +0.000 A 
ATOM      5  C   UNL     1     -41.822  31.835   5.507  0.00  0.00    +0.000 A 
ATOM      6  C   UNL     1     -43.143  33.769   4.837  0.00  0.00    +0.000 A 
ATOM      7  C   UNL     1     -42.028  33.161   5.602  0.00  0.00    +0.000 A 
ATOM      8  C   UNL     1     -45.023  33.326   3.259  0.00  0.00    +0.000 A 
ATOM      9  C   UNL     1     -44.366  30.607   3.227  0.00  0.00    +0.000 A 
ATOM     10  C   UNL     1     -45.440  31.076   2.472  0.00  0.00    +0.000 A 
ATOM     11  C   UNL     1     -45.768  32.433   2.488  0.00  0.00    +0.000 A 
ENDROOT
BRANCH   5  12
ATOM     12  C   UNL     1     -40.734  31.149   6.226  0.00  0.00    +0.000 A 
ATOM     13  C   UNL     1     -40.606  29.762   6.139  0.00  0.00    +0.000 A 
ATOM     14  C   UNL     1     -39.831  31.886   6.991  0.00  0.00    +0.000 A 
ATOM     15  C   UNL     1     -39.575  29.113   6.819  0.00  0.00    +0.000 A 
ATOM     16  C   UNL     1     -38.800  31.237   7.672  0.00  0.00    +0.000 A 
ATOM     17  C   UNL     1     -38.673  29.849   7.586  0.00  0.00    +0.000 A 
BRANCH  17  18
ATOM     18  O   UNL     1     -37.667  29.216   8.249  0.00  0.00    +0.000 OA
ATOM     19  H   UNL     1     -37.773  29.371   9.203  0.00  0.00    +0.000 HD
ENDBRANCH  17  18
ENDBRANCH   5  12
BRANCH   7  20
ATOM     20  O   UNL     1     -41.238  33.992   6.368  0.00  0.00    +0.000 OA
ATOM     21  H   UNL     1     -41.567  34.904   6.311  0.00  0.00    +0.000 HD
ENDBRANCH   7  20
BRANCH   8  22
ATOM     22  O   UNL     1     -45.384  34.639   3.239  0.00  0.00    +0.000 OA
ATOM     23  H   UNL     1     -45.365  35.011   4.134  0.00  0.00    +0.000 HD
ENDBRANCH   8  22
BRANCH  10  24
ATOM     24  O   UNL     1     -46.170  30.211   1.716  0.00  0.00    +0.000 OA
ATOM     25  H   UNL     1     -46.020  29.306   2.040  0.00  0.00    +0.000 HD
ENDBRANCH  10  24
TORSDOF 5
ENDMDL
