MODEL        4
REMARK  Name = 5280343
REMARK  6 active torsions:
REMARK  status: ('A' for Active; 'I' for Inactive)
REMARK    1  A    between atoms: O_2  and  C_12
REMARK    2  A    between atoms: O_3  and  C_14
REMARK    3  A    between atoms: O_5  and  C_16
REMARK    4  A    between atoms: O_6  and  C_20
REMARK    5  A    between atoms: O_7  and  C_22
REMARK    6  A    between atoms: C_10  and  C_11
REMARK                            x       y       z     vdW  Elec       q    Type
REMARK                         _______ _______ _______ _____ _____    ______ ____
ROOT
ATOM      1  O   UNL     1      27.722   7.223  60.222  0.00  0.00    +0.000 OA
ATOM      2  O   UNL     1      28.051   3.327  61.370  0.00  0.00    +0.000 OA
ATOM      3  C   UNL     1      28.379   4.948  59.689  0.00  0.00    +0.000 A 
ATOM      4  C   UNL     1      28.239   6.295  59.357  0.00  0.00    +0.000 A 
ATOM      5  C   UNL     1      27.334   6.807  61.486  0.00  0.00    +0.000 A 
ATOM      6  C   UNL     1      27.409   5.538  61.927  0.00  0.00    +0.000 A 
ATOM      7  C   UNL     1      27.957   4.497  61.024  0.00  0.00    +0.000 A 
ATOM      8  C   UNL     1      28.912   4.046  58.765  0.00  0.00    +0.000 A 
ATOM      9  C   UNL     1      28.630   6.747  58.097  0.00  0.00    +0.000 A 
ATOM     10  C   UNL     1      29.163   5.848  57.171  0.00  0.00    +0.000 A 
ATOM     11  C   UNL     1      29.303   4.500  57.506  0.00  0.00    +0.000 A 
ENDROOT
BRANCH   5  12
ATOM     12  C   UNL     1      26.797   7.902  62.313  0.00  0.00    +0.000 A 
ATOM     13  C   UNL     1      25.446   7.919  62.657  0.00  0.00    +0.000 A 
ATOM     14  C   UNL     1      27.642   8.923  62.751  0.00  0.00    +0.000 A 
ATOM     15  C   UNL     1      24.938   8.955  63.441  0.00  0.00    +0.000 A 
ATOM     16  C   UNL     1      27.134   9.959  63.534  0.00  0.00    +0.000 A 
ATOM     17  C   UNL     1      25.783   9.976  63.879  0.00  0.00    +0.000 A 
BRANCH  15  18
ATOM     18  O   UNL     1      23.617   8.962  63.771  0.00  0.00    +0.000 OA
ATOM     19  H   UNL     1      23.424   9.725  64.339  0.00  0.00    +0.000 HD
ENDBRANCH  15  18
BRANCH  17  20
ATOM     20  O   UNL     1      25.299  10.993  64.646  0.00  0.00    +0.000 OA
ATOM     21  H   UNL     1      24.361  10.840  64.839  0.00  0.00    +0.000 HD
ENDBRANCH  17  20
ENDBRANCH   5  12
BRANCH   6  22
ATOM     22  O   UNL     1      26.983   5.150  63.179  0.00  0.00    +0.000 OA
ATOM     23  H   UNL     1      27.103   4.194  63.286  0.00  0.00    +0.000 HD
ENDBRANCH   6  22
BRANCH   8  24
ATOM     24  O   UNL     1      29.070   2.721  59.040  0.00  0.00    +0.000 OA
ATOM     25  H   UNL     1      29.094   2.572  59.998  0.00  0.00    +0.000 HD
ENDBRANCH   8  24
BRANCH  10  26
ATOM     26  O   UNL     1      29.546   6.286  55.941  0.00  0.00    +0.000 OA
ATOM     27  H   UNL     1      28.781   6.691  55.498  0.00  0.00    +0.000 HD
ENDBRANCH  10  26
TORSDOF 6
ENDMDL
