MODEL        5
REMARK  Name = 5280863
REMARK  5 active torsions:
REMARK  status: ('A' for Active; 'I' for Inactive)
REMARK    1  A    between atoms: O_2  and  C_11
REMARK    2  A    between atoms: O_3  and  C_13
REMARK    3  A    between atoms: O_5  and  C_15
REMARK    4  A    between atoms: O_6  and  C_21
REMARK    5  A    between atoms: C_9  and  C_12
REMARK                            x       y       z     vdW  Elec       q    Type
REMARK                         _______ _______ _______ _____ _____    ______ ____
ROOT
ATOM      1  O   UNL     1      14.397  39.110  75.439  0.00  0.00    +0.000 OA
ATOM      2  O   UNL     1      11.472  36.763  73.844  0.00  0.00    +0.000 OA
ATOM      3  C   UNL     1      13.255  38.262  73.472  0.00  0.00    +0.000 A 
ATOM      4  C   UNL     1      14.233  39.045  74.080  0.00  0.00    +0.000 A 
ATOM      5  C   UNL     1      13.559  38.351  76.243  0.00  0.00    +0.000 A 
ATOM      6  C   UNL     1      12.354  37.466  74.320  0.00  0.00    +0.000 A 
ATOM      7  C   UNL     1      12.571  37.562  75.783  0.00  0.00    +0.000 A 
ATOM      8  C   UNL     1      13.134  38.237  72.080  0.00  0.00    +0.000 A 
ATOM      9  C   UNL     1      15.099  39.812  73.298  0.00  0.00    +0.000 A 
ATOM     10  C   UNL     1      14.982  39.790  71.909  0.00  0.00    +0.000 A 
ATOM     11  C   UNL     1      14.002  39.003  71.301  0.00  0.00    +0.000 A 
ENDROOT
BRANCH   5  12
ATOM     12  C   UNL     1      13.841  38.512  77.680  0.00  0.00    +0.000 A 
ATOM     13  C   UNL     1      13.583  39.730  78.310  0.00  0.00    +0.000 A 
ATOM     14  C   UNL     1      14.364  37.446  78.412  0.00  0.00    +0.000 A 
ATOM     15  C   UNL     1      13.849  39.882  79.671  0.00  0.00    +0.000 A 
ATOM     16  C   UNL     1      14.631  37.598  79.773  0.00  0.00    +0.000 A 
ATOM     17  C   UNL     1      14.373  38.817  80.402  0.00  0.00    +0.000 A 
BRANCH  17  18
ATOM     18  O   UNL     1      14.632  38.964  81.730  0.00  0.00    +0.000 OA
ATOM     19  H   UNL     1      15.584  38.835  81.881  0.00  0.00    +0.000 HD
ENDBRANCH  17  18
ENDBRANCH   5  12
BRANCH   7  20
ATOM     20  O   UNL     1      11.733  36.846  76.612  0.00  0.00    +0.000 OA
ATOM     21  H   UNL     1      11.294  36.142  76.108  0.00  0.00    +0.000 HD
ENDBRANCH   7  20
BRANCH   8  22
ATOM     22  O   UNL     1      12.195  37.488  71.438  0.00  0.00    +0.000 OA
ATOM     23  H   UNL     1      12.083  36.632  71.877  0.00  0.00    +0.000 HD
ENDBRANCH   8  22
BRANCH  10  24
ATOM     24  O   UNL     1      15.825  40.536  71.143  0.00  0.00    +0.000 OA
ATOM     25  H   UNL     1      16.742  40.330  71.391  0.00  0.00    +0.000 HD
ENDBRANCH  10  24
TORSDOF 5
ENDMDL
