MODEL        4
REMARK  Name = 5280343
REMARK  6 active torsions:
REMARK  status: ('A' for Active; 'I' for Inactive)
REMARK    1  A    between atoms: O_2  and  C_12
REMARK    2  A    between atoms: O_3  and  C_14
REMARK    3  A    between atoms: O_5  and  C_16
REMARK    4  A    between atoms: O_6  and  C_20
REMARK    5  A    between atoms: O_7  and  C_22
REMARK    6  A    between atoms: C_10  and  C_11
REMARK                            x       y       z     vdW  Elec       q    Type
REMARK                         _______ _______ _______ _____ _____    ______ ____
ROOT
ATOM      1  O   UNL     1      22.569  -1.203   8.036  0.00  0.00    +0.000 OA
ATOM      2  O   UNL     1      23.947  -0.112   4.359  0.00  0.00    +0.000 OA
ATOM      3  C   UNL     1      23.417   0.531   6.566  0.00  0.00    +0.000 A 
ATOM      4  C   UNL     1      22.937   0.095   7.799  0.00  0.00    +0.000 A 
ATOM      5  C   UNL     1      22.691  -2.124   7.007  0.00  0.00    +0.000 A 
ATOM      6  C   UNL     1      23.132  -1.831   5.770  0.00  0.00    +0.000 A 
ATOM      7  C   UNL     1      23.537  -0.438   5.466  0.00  0.00    +0.000 A 
ATOM      8  C   UNL     1      23.777   1.869   6.382  0.00  0.00    +0.000 A 
ATOM      9  C   UNL     1      22.812   0.995   8.857  0.00  0.00    +0.000 A 
ATOM     10  C   UNL     1      23.171   2.332   8.678  0.00  0.00    +0.000 A 
ATOM     11  C   UNL     1      23.652   2.767   7.442  0.00  0.00    +0.000 A 
ENDROOT
BRANCH   5  12
ATOM     12  C   UNL     1      22.262  -3.480   7.394  0.00  0.00    +0.000 A 
ATOM     13  C   UNL     1      23.111  -4.293   8.144  0.00  0.00    +0.000 A 
ATOM     14  C   UNL     1      21.005  -3.949   7.010  0.00  0.00    +0.000 A 
ATOM     15  C   UNL     1      22.704  -5.576   8.511  0.00  0.00    +0.000 A 
ATOM     16  C   UNL     1      20.598  -5.232   7.377  0.00  0.00    +0.000 A 
ATOM     17  C   UNL     1      21.447  -6.046   8.127  0.00  0.00    +0.000 A 
BRANCH  15  18
ATOM     18  O   UNL     1      23.542  -6.362   9.242  0.00  0.00    +0.000 OA
ATOM     19  H   UNL     1      23.268  -7.291   9.168  0.00  0.00    +0.000 HD
ENDBRANCH  15  18
BRANCH  17  20
ATOM     20  O   UNL     1      21.038  -7.296   8.481  0.00  0.00    +0.000 OA
ATOM     21  H   UNL     1      21.794  -7.808   8.808  0.00  0.00    +0.000 HD
ENDBRANCH  17  20
ENDBRANCH   5  12
BRANCH   6  22
ATOM     22  O   UNL     1      23.210  -2.764   4.758  0.00  0.00    +0.000 OA
ATOM     23  H   UNL     1      23.540  -2.345   3.948  0.00  0.00    +0.000 HD
ENDBRANCH   6  22
BRANCH   8  24
ATOM     24  O   UNL     1      24.252   2.346   5.197  0.00  0.00    +0.000 OA
ATOM     25  H   UNL     1      24.919   1.746   4.832  0.00  0.00    +0.000 HD
ENDBRANCH   8  24
BRANCH  10  26
ATOM     26  O   UNL     1      23.050   3.212   9.708  0.00  0.00    +0.000 OA
ATOM     27  H   UNL     1      22.130   3.525   9.751  0.00  0.00    +0.000 HD
ENDBRANCH  10  26
TORSDOF 6
ENDMDL
