MODEL        5
REMARK  Name = 5280863
REMARK  5 active torsions:
REMARK  status: ('A' for Active; 'I' for Inactive)
REMARK    1  A    between atoms: O_2  and  C_11
REMARK    2  A    between atoms: O_3  and  C_13
REMARK    3  A    between atoms: O_5  and  C_15
REMARK    4  A    between atoms: O_6  and  C_21
REMARK    5  A    between atoms: C_9  and  C_12
REMARK                            x       y       z     vdW  Elec       q    Type
REMARK                         _______ _______ _______ _____ _____    ______ ____
ROOT
ATOM      1  O   UNL     1     -14.975  -7.577  -7.676  0.00  0.00    +0.000 OA
ATOM      2  O   UNL     1     -14.782  -9.109  -3.905  0.00  0.00    +0.000 OA
ATOM      3  C   UNL     1     -14.874  -9.520  -6.225  0.00  0.00    +0.000 A 
ATOM      4  C   UNL     1     -14.942  -8.934  -7.487  0.00  0.00    +0.000 A 
ATOM      5  C   UNL     1     -14.926  -6.753  -6.562  0.00  0.00    +0.000 A 
ATOM      6  C   UNL     1     -14.836  -8.652  -5.039  0.00  0.00    +0.000 A 
ATOM      7  C   UNL     1     -14.868  -7.191  -5.291  0.00  0.00    +0.000 A 
ATOM      8  C   UNL     1     -14.844 -10.911  -6.095  0.00  0.00    +0.000 A 
ATOM      9  C   UNL     1     -14.982  -9.736  -8.629  0.00  0.00    +0.000 A 
ATOM     10  C   UNL     1     -14.952 -11.124  -8.502  0.00  0.00    +0.000 A 
ATOM     11  C   UNL     1     -14.883 -11.711  -7.238  0.00  0.00    +0.000 A 
ENDROOT
BRANCH   5  12
ATOM     12  C   UNL     1     -14.969  -5.320  -6.904  0.00  0.00    +0.000 A 
ATOM     13  C   UNL     1     -14.622  -4.899  -8.188  0.00  0.00    +0.000 A 
ATOM     14  C   UNL     1     -15.359  -4.385  -5.945  0.00  0.00    +0.000 A 
ATOM     15  C   UNL     1     -14.664  -3.542  -8.512  0.00  0.00    +0.000 A 
ATOM     16  C   UNL     1     -15.400  -3.029  -6.269  0.00  0.00    +0.000 A 
ATOM     17  C   UNL     1     -15.052  -2.608  -7.553  0.00  0.00    +0.000 A 
BRANCH  17  18
ATOM     18  O   UNL     1     -15.093  -1.284  -7.869  0.00  0.00    +0.000 OA
ATOM     19  H   UNL     1     -14.314  -0.846  -7.488  0.00  0.00    +0.000 HD
ENDBRANCH  17  18
ENDBRANCH   5  12
BRANCH   7  20
ATOM     20  O   UNL     1     -14.855  -6.345  -4.203  0.00  0.00    +0.000 OA
ATOM     21  H   UNL     1     -14.850  -6.863  -3.382  0.00  0.00    +0.000 HD
ENDBRANCH   7  20
BRANCH   8  22
ATOM     22  O   UNL     1     -14.778 -11.534  -4.885  0.00  0.00    +0.000 OA
ATOM     23  H   UNL     1     -14.599 -10.892  -4.181  0.00  0.00    +0.000 HD
ENDBRANCH   8  22
BRANCH  10  24
ATOM     24  O   UNL     1     -14.990 -11.910  -9.614  0.00  0.00    +0.000 OA
ATOM     25  H   UNL     1     -14.092 -12.227  -9.807  0.00  0.00    +0.000 HD
ENDBRANCH  10  24
TORSDOF 5
ENDMDL
