MODEL        5
REMARK  Name = 5280863
REMARK  5 active torsions:
REMARK  status: ('A' for Active; 'I' for Inactive)
REMARK    1  A    between atoms: O_2  and  C_11
REMARK    2  A    between atoms: O_3  and  C_13
REMARK    3  A    between atoms: O_5  and  C_15
REMARK    4  A    between atoms: O_6  and  C_21
REMARK    5  A    between atoms: C_9  and  C_12
REMARK                            x       y       z     vdW  Elec       q    Type
REMARK                         _______ _______ _______ _____ _____    ______ ____
ROOT
ATOM      1  O   UNL     1      60.538  32.123  75.583  0.00  0.00    +0.000 OA
ATOM      2  O   UNL     1      57.409  34.730  75.691  0.00  0.00    +0.000 OA
ATOM      3  C   UNL     1      59.044  33.626  74.400  0.00  0.00    +0.000 A 
ATOM      4  C   UNL     1      60.109  32.728  74.431  0.00  0.00    +0.000 A 
ATOM      5  C   UNL     1      59.876  32.409  76.767  0.00  0.00    +0.000 A 
ATOM      6  C   UNL     1      58.346  33.944  75.655  0.00  0.00    +0.000 A 
ATOM      7  C   UNL     1      58.842  33.263  76.875  0.00  0.00    +0.000 A 
ATOM      8  C   UNL     1      58.651  34.213  73.194  0.00  0.00    +0.000 A 
ATOM      9  C   UNL     1      60.789  32.411  73.254  0.00  0.00    +0.000 A 
ATOM     10  C   UNL     1      60.399  32.994  72.049  0.00  0.00    +0.000 A 
ATOM     11  C   UNL     1      59.332  33.894  72.019  0.00  0.00    +0.000 A 
ENDROOT
BRANCH   5  12
ATOM     12  C   UNL     1      60.438  31.694  77.927  0.00  0.00    +0.000 A 
ATOM     13  C   UNL     1      61.525  32.230  78.617  0.00  0.00    +0.000 A 
ATOM     14  C   UNL     1      59.880  30.483  78.336  0.00  0.00    +0.000 A 
ATOM     15  C   UNL     1      62.056  31.554  79.716  0.00  0.00    +0.000 A 
ATOM     16  C   UNL     1      60.411  29.807  79.435  0.00  0.00    +0.000 A 
ATOM     17  C   UNL     1      61.500  30.343  80.124  0.00  0.00    +0.000 A 
BRANCH  17  18
ATOM     18  O   UNL     1      62.018  29.683  81.197  0.00  0.00    +0.000 OA
ATOM     19  H   UNL     1      62.022  28.730  81.007  0.00  0.00    +0.000 HD
ENDBRANCH  17  18
ENDBRANCH   5  12
BRANCH   7  20
ATOM     20  O   UNL     1      58.226  33.551  78.074  0.00  0.00    +0.000 OA
ATOM     21  H   UNL     1      57.545  34.230  77.940  0.00  0.00    +0.000 HD
ENDBRANCH   7  20
BRANCH   8  22
ATOM     22  O   UNL     1      57.618  35.097  73.111  0.00  0.00    +0.000 OA
ATOM     23  H   UNL     1      56.850  34.771  73.605  0.00  0.00    +0.000 HD
ENDBRANCH   8  22
BRANCH  10  24
ATOM     24  O   UNL     1      61.061  32.688  70.899  0.00  0.00    +0.000 OA
ATOM     25  H   UNL     1      62.002  32.556  71.102  0.00  0.00    +0.000 HD
ENDBRANCH  10  24
TORSDOF 5
ENDMDL
