MODEL        5
REMARK  Name = 5280863
REMARK  5 active torsions:
REMARK  status: ('A' for Active; 'I' for Inactive)
REMARK    1  A    between atoms: O_2  and  C_11
REMARK    2  A    between atoms: O_3  and  C_13
REMARK    3  A    between atoms: O_5  and  C_15
REMARK    4  A    between atoms: O_6  and  C_21
REMARK    5  A    between atoms: C_9  and  C_12
REMARK                            x       y       z     vdW  Elec       q    Type
REMARK                         _______ _______ _______ _____ _____    ______ ____
ROOT
ATOM      1  O   UNL     1     152.462 172.314 143.577  0.00  0.00    +0.000 OA
ATOM      2  O   UNL     1     152.106 171.861 139.543  0.00  0.00    +0.000 OA
ATOM      3  C   UNL     1     151.040 172.246 141.611  0.00  0.00    +0.000 A 
ATOM      4  C   UNL     1     151.229 172.390 142.984  0.00  0.00    +0.000 A 
ATOM      5  C   UNL     1     153.570 172.097 142.773  0.00  0.00    +0.000 A 
ATOM      6  C   UNL     1     152.211 172.002 140.754  0.00  0.00    +0.000 A 
ATOM      7  C   UNL     1     153.524 171.932 141.439  0.00  0.00    +0.000 A 
ATOM      8  C   UNL     1     149.758 172.332 141.062  0.00  0.00    +0.000 A 
ATOM      9  C   UNL     1     150.134 172.621 143.818  0.00  0.00    +0.000 A 
ATOM     10  C   UNL     1     148.853 172.708 143.274  0.00  0.00    +0.000 A 
ATOM     11  C   UNL     1     148.666 172.564 141.899  0.00  0.00    +0.000 A 
ENDROOT
BRANCH   5  12
ATOM     12  C   UNL     1     154.830 172.036 143.535  0.00  0.00    +0.000 A 
ATOM     13  C   UNL     1     155.461 170.809 143.745  0.00  0.00    +0.000 A 
ATOM     14  C   UNL     1     155.393 173.206 144.046  0.00  0.00    +0.000 A 
ATOM     15  C   UNL     1     156.653 170.752 144.466  0.00  0.00    +0.000 A 
ATOM     16  C   UNL     1     156.586 173.148 144.767  0.00  0.00    +0.000 A 
ATOM     17  C   UNL     1     157.216 171.921 144.977  0.00  0.00    +0.000 A 
BRANCH  17  18
ATOM     18  O   UNL     1     158.381 171.865 145.680  0.00  0.00    +0.000 OA
ATOM     19  H   UNL     1     158.365 172.552 146.368  0.00  0.00    +0.000 HD
ENDBRANCH  17  18
ENDBRANCH   5  12
BRANCH   7  20
ATOM     20  O   UNL     1     154.642 171.683 140.672  0.00  0.00    +0.000 OA
ATOM     21  H   UNL     1     154.379 171.492 139.757  0.00  0.00    +0.000 HD
ENDBRANCH   7  20
BRANCH   8  22
ATOM     22  O   UNL     1     149.520 172.199 139.727  0.00  0.00    +0.000 OA
ATOM     23  H   UNL     1     150.152 172.726 139.214  0.00  0.00    +0.000 HD
ENDBRANCH   8  22
BRANCH  10  24
ATOM     24  O   UNL     1     147.783 172.933 144.085  0.00  0.00    +0.000 OA
ATOM     25  H   UNL     1     147.412 173.808 143.882  0.00  0.00    +0.000 HD
ENDBRANCH  10  24
TORSDOF 5
ENDMDL
