MODEL        5
REMARK  Name = 5280863
REMARK  5 active torsions:
REMARK  status: ('A' for Active; 'I' for Inactive)
REMARK    1  A    between atoms: O_2  and  C_11
REMARK    2  A    between atoms: O_3  and  C_13
REMARK    3  A    between atoms: O_5  and  C_15
REMARK    4  A    between atoms: O_6  and  C_21
REMARK    5  A    between atoms: C_9  and  C_12
REMARK                            x       y       z     vdW  Elec       q    Type
REMARK                         _______ _______ _______ _____ _____    ______ ____
ROOT
ATOM      1  O   UNL     1     -12.286 -20.067   6.773  0.00  0.00    +0.000 OA
ATOM      2  O   UNL     1     -10.561 -18.303  10.015  0.00  0.00    +0.000 OA
ATOM      3  C   UNL     1     -10.954 -18.258   7.691  0.00  0.00    +0.000 A 
ATOM      4  C   UNL     1     -11.566 -18.911   6.623  0.00  0.00    +0.000 A 
ATOM      5  C   UNL     1     -12.420 -20.604   8.044  0.00  0.00    +0.000 A 
ATOM      6  C   UNL     1     -11.081 -18.828   9.040  0.00  0.00    +0.000 A 
ATOM      7  C   UNL     1     -11.872 -20.077   9.155  0.00  0.00    +0.000 A 
ATOM      8  C   UNL     1     -10.232 -17.081   7.478  0.00  0.00    +0.000 A 
ATOM      9  C   UNL     1     -11.459 -18.390   5.332  0.00  0.00    +0.000 A 
ATOM     10  C   UNL     1     -10.739 -17.216   5.116  0.00  0.00    +0.000 A 
ATOM     11  C   UNL     1     -10.127 -16.562   6.186  0.00  0.00    +0.000 A 
ENDROOT
BRANCH   5  12
ATOM     12  C   UNL     1     -13.214 -21.844   8.064  0.00  0.00    +0.000 A 
ATOM     13  C   UNL     1     -12.573 -23.083   8.109  0.00  0.00    +0.000 A 
ATOM     14  C   UNL     1     -14.608 -21.781   8.040  0.00  0.00    +0.000 A 
ATOM     15  C   UNL     1     -13.326 -24.257   8.128  0.00  0.00    +0.000 A 
ATOM     16  C   UNL     1     -15.360 -22.955   8.060  0.00  0.00    +0.000 A 
ATOM     17  C   UNL     1     -14.718 -24.194   8.103  0.00  0.00    +0.000 A 
BRANCH  17  18
ATOM     18  O   UNL     1     -15.452 -25.340   8.123  0.00  0.00    +0.000 OA
ATOM     19  H   UNL     1     -15.224 -25.846   8.921  0.00  0.00    +0.000 HD
ENDBRANCH  17  18
ENDBRANCH   5  12
BRANCH   7  20
ATOM     20  O   UNL     1     -11.996 -20.654  10.401  0.00  0.00    +0.000 OA
ATOM     21  H   UNL     1     -11.542 -20.109  11.063  0.00  0.00    +0.000 HD
ENDBRANCH   7  20
BRANCH   8  22
ATOM     22  O   UNL     1      -9.615 -16.404   8.487  0.00  0.00    +0.000 OA
ATOM     23  H   UNL     1      -9.213 -17.023   9.115  0.00  0.00    +0.000 HD
ENDBRANCH   8  22
BRANCH  10  24
ATOM     24  O   UNL     1     -10.632 -16.705   3.858  0.00  0.00    +0.000 OA
ATOM     25  H   UNL     1      -9.924 -17.175   3.386  0.00  0.00    +0.000 HD
ENDBRANCH  10  24
TORSDOF 5
ENDMDL
