MODEL        5
REMARK  Name = 5280863
REMARK  5 active torsions:
REMARK  status: ('A' for Active; 'I' for Inactive)
REMARK    1  A    between atoms: O_2  and  C_11
REMARK    2  A    between atoms: O_3  and  C_13
REMARK    3  A    between atoms: O_5  and  C_15
REMARK    4  A    between atoms: O_6  and  C_21
REMARK    5  A    between atoms: C_9  and  C_12
REMARK                            x       y       z     vdW  Elec       q    Type
REMARK                         _______ _______ _______ _____ _____    ______ ____
ROOT
ATOM      1  O   UNL     1      -7.660  -6.588 -25.010  0.00  0.00    +0.000 OA
ATOM      2  O   UNL     1      -8.260  -2.879 -23.434  0.00  0.00    +0.000 OA
ATOM      3  C   UNL     1      -9.050  -5.084 -23.708  0.00  0.00    +0.000 A 
ATOM      4  C   UNL     1      -8.787  -6.329 -24.275  0.00  0.00    +0.000 A 
ATOM      5  C   UNL     1      -6.737  -5.570 -25.187  0.00  0.00    +0.000 A 
ATOM      6  C   UNL     1      -8.081  -3.995 -23.902  0.00  0.00    +0.000 A 
ATOM      7  C   UNL     1      -6.875  -4.323 -24.700  0.00  0.00    +0.000 A 
ATOM      8  C   UNL     1     -10.218  -4.878 -22.968  0.00  0.00    +0.000 A 
ATOM      9  C   UNL     1      -9.693  -7.378 -24.106  0.00  0.00    +0.000 A 
ATOM     10  C   UNL     1     -10.858  -7.176 -23.368  0.00  0.00    +0.000 A 
ATOM     11  C   UNL     1     -11.120  -5.929 -22.800  0.00  0.00    +0.000 A 
ENDROOT
BRANCH   5  12
ATOM     12  C   UNL     1      -5.575  -5.980 -25.995  0.00  0.00    +0.000 A 
ATOM     13  C   UNL     1      -4.930  -5.052 -26.812  0.00  0.00    +0.000 A 
ATOM     14  C   UNL     1      -5.119  -7.298 -25.942  0.00  0.00    +0.000 A 
ATOM     15  C   UNL     1      -3.830  -5.440 -27.577  0.00  0.00    +0.000 A 
ATOM     16  C   UNL     1      -4.019  -7.686 -26.706  0.00  0.00    +0.000 A 
ATOM     17  C   UNL     1      -3.375  -6.757 -27.525  0.00  0.00    +0.000 A 
BRANCH  17  18
ATOM     18  O   UNL     1      -2.301  -7.136 -28.270  0.00  0.00    +0.000 OA
ATOM     19  H   UNL     1      -2.554  -7.895 -28.823  0.00  0.00    +0.000 HD
ENDBRANCH  17  18
ENDBRANCH   5  12
BRANCH   7  20
ATOM     20  O   UNL     1      -5.953  -3.322 -24.922  0.00  0.00    +0.000 OA
ATOM     21  H   UNL     1      -6.345  -2.459 -24.712  0.00  0.00    +0.000 HD
ENDBRANCH   7  20
BRANCH   8  22
ATOM     22  O   UNL     1     -10.521  -3.680 -22.393  0.00  0.00    +0.000 OA
ATOM     23  H   UNL     1     -10.369  -2.955 -23.018  0.00  0.00    +0.000 HD
ENDBRANCH   8  22
BRANCH  10  24
ATOM     24  O   UNL     1     -11.743  -8.197 -23.202  0.00  0.00    +0.000 OA
ATOM     25  H   UNL     1     -11.250  -9.029 -23.106  0.00  0.00    +0.000 HD
ENDBRANCH  10  24
TORSDOF 5
ENDMDL
