MODEL        4
REMARK  Name = 5280343
REMARK  6 active torsions:
REMARK  status: ('A' for Active; 'I' for Inactive)
REMARK    1  A    between atoms: O_2  and  C_12
REMARK    2  A    between atoms: O_3  and  C_14
REMARK    3  A    between atoms: O_5  and  C_16
REMARK    4  A    between atoms: O_6  and  C_20
REMARK    5  A    between atoms: O_7  and  C_22
REMARK    6  A    between atoms: C_10  and  C_11
REMARK                            x       y       z     vdW  Elec       q    Type
REMARK                         _______ _______ _______ _____ _____    ______ ____
ROOT
ATOM      1  O   UNL     1      -0.735  57.112 -25.098  0.00  0.00    +0.000 OA
ATOM      2  O   UNL     1      -1.875  53.205 -24.883  0.00  0.00    +0.000 OA
ATOM      3  C   UNL     1      -1.333  55.194 -23.736  0.00  0.00    +0.000 A 
ATOM      4  C   UNL     1      -0.942  56.524 -23.877  0.00  0.00    +0.000 A 
ATOM      5  C   UNL     1      -0.937  56.354 -26.241  0.00  0.00    +0.000 A 
ATOM      6  C   UNL     1      -1.306  55.060 -26.242  0.00  0.00    +0.000 A 
ATOM      7  C   UNL     1      -1.536  54.380 -24.945  0.00  0.00    +0.000 A 
ATOM      8  C   UNL     1      -1.528  54.647 -22.465  0.00  0.00    +0.000 A 
ATOM      9  C   UNL     1      -0.740  57.316 -22.747  0.00  0.00    +0.000 A 
ATOM     10  C   UNL     1      -0.934  56.773 -21.475  0.00  0.00    +0.000 A 
ATOM     11  C   UNL     1      -1.327  55.441 -21.336  0.00  0.00    +0.000 A 
ENDROOT
BRANCH   5  12
ATOM     12  C   UNL     1      -0.681  57.105 -27.482  0.00  0.00    +0.000 A 
ATOM     13  C   UNL     1      -0.310  56.429 -28.643  0.00  0.00    +0.000 A 
ATOM     14  C   UNL     1      -0.810  58.495 -27.495  0.00  0.00    +0.000 A 
ATOM     15  C   UNL     1      -0.069  57.140 -29.819  0.00  0.00    +0.000 A 
ATOM     16  C   UNL     1      -0.569  59.206 -28.670  0.00  0.00    +0.000 A 
ATOM     17  C   UNL     1      -0.198  58.530 -29.832  0.00  0.00    +0.000 A 
BRANCH  15  18
ATOM     18  O   UNL     1       0.294  56.469 -30.947  0.00  0.00    +0.000 OA
ATOM     19  H   UNL     1       0.379  57.093 -31.687  0.00  0.00    +0.000 HD
ENDBRANCH  15  18
BRANCH  17  20
ATOM     20  O   UNL     1       0.033  59.236 -30.974  0.00  0.00    +0.000 OA
ATOM     21  H   UNL     1       0.284  58.629 -31.688  0.00  0.00    +0.000 HD
ENDBRANCH  17  20
ENDBRANCH   5  12
BRANCH   6  22
ATOM     22  O   UNL     1      -1.467  54.324 -27.396  0.00  0.00    +0.000 OA
ATOM     23  H   UNL     1      -1.642  53.396 -27.174  0.00  0.00    +0.000 HD
ENDBRANCH   6  22
BRANCH   8  24
ATOM     24  O   UNL     1      -1.910  53.353 -22.273  0.00  0.00    +0.000 OA
ATOM     25  H   UNL     1      -1.483  52.772 -22.920  0.00  0.00    +0.000 HD
ENDBRANCH   8  24
BRANCH  10  26
ATOM     26  O   UNL     1      -0.739  57.543 -20.371  0.00  0.00    +0.000 OA
ATOM     27  H   UNL     1      -0.439  58.425 -20.650  0.00  0.00    +0.000 HD
ENDBRANCH  10  26
TORSDOF 6
ENDMDL
