MODEL        6
REMARK  Name = 5281426
REMARK  1 active torsions:
REMARK  status: ('A' for Active; 'I' for Inactive)
REMARK    1  A    between atoms: O_2  and  C_9
REMARK                            x       y       z     vdW  Elec       q    Type
REMARK                         _______ _______ _______ _____ _____    ______ ____
ROOT
ATOM      1  O   UNL     1      12.512  14.741  18.001  0.00  0.00    +0.000 OA
ATOM      2  O   UNL     1      11.419  14.775  15.988  0.00  0.00    +0.000 OA
ATOM      3  C   UNL     1      13.939  16.619  18.604  0.00  0.00    +0.000 A 
ATOM      4  C   UNL     1      13.385  15.378  18.907  0.00  0.00    +0.000 A 
ATOM      5  C   UNL     1      14.799  17.217  19.528  0.00  0.00    +0.000 A 
ATOM      6  C   UNL     1      13.666  14.722  20.105  0.00  0.00    +0.000 A 
ATOM      7  C   UNL     1      13.603  17.246  17.337  0.00  0.00    +0.000 A 
ATOM      8  C   UNL     1      14.524  15.326  21.019  0.00  0.00    +0.000 A 
ATOM      9  C   UNL     1      15.089  16.571  20.733  0.00  0.00    +0.000 A 
ATOM     10  C   UNL     1      12.776  16.636  16.484  0.00  0.00    +0.000 A 
ATOM     11  C   UNL     1      12.176  15.323  16.783  0.00  0.00    +0.000 A 
ENDROOT
BRANCH   8  12
ATOM     12  O   UNL     1      14.814  14.704  22.195  0.00  0.00    +0.000 OA
ATOM     13  H   UNL     1      15.307  13.888  22.006  0.00  0.00    +0.000 HD
ENDBRANCH   8  12
TORSDOF 1
ENDMDL
