MODEL        6
REMARK  Name = 5281426
REMARK  1 active torsions:
REMARK  status: ('A' for Active; 'I' for Inactive)
REMARK    1  A    between atoms: O_2  and  C_9
REMARK                            x       y       z     vdW  Elec       q    Type
REMARK                         _______ _______ _______ _____ _____    ______ ____
ROOT
ATOM      1  O   UNL     1     -22.199-109.977 198.789  0.00  0.00    +0.000 OA
ATOM      2  O   UNL     1     -23.291-108.392 200.032  0.00  0.00    +0.000 OA
ATOM      3  C   UNL     1     -23.432-111.192 197.077  0.00  0.00    +0.000 A 
ATOM      4  C   UNL     1     -22.247-110.947 197.767  0.00  0.00    +0.000 A 
ATOM      5  C   UNL     1     -23.438-112.161 196.070  0.00  0.00    +0.000 A 
ATOM      6  C   UNL     1     -21.073-111.642 197.479  0.00  0.00    +0.000 A 
ATOM      7  C   UNL     1     -24.618-110.431 197.429  0.00  0.00    +0.000 A 
ATOM      8  C   UNL     1     -21.090-112.605 196.474  0.00  0.00    +0.000 A 
ATOM      9  C   UNL     1     -22.269-112.865 195.771  0.00  0.00    +0.000 A 
ATOM     10  C   UNL     1     -24.564-109.514 198.399  0.00  0.00    +0.000 A 
ATOM     11  C   UNL     1     -23.322-109.236 199.143  0.00  0.00    +0.000 A 
ENDROOT
BRANCH   8  12
ATOM     12  O   UNL     1     -19.956-113.297 196.175  0.00  0.00    +0.000 OA
ATOM     13  H   UNL     1     -19.932-114.109 196.710  0.00  0.00    +0.000 HD
ENDBRANCH   8  12
TORSDOF 1
ENDMDL
