MODEL        6
REMARK  Name = 5281426
REMARK  1 active torsions:
REMARK  status: ('A' for Active; 'I' for Inactive)
REMARK    1  A    between atoms: O_2  and  C_9
REMARK                            x       y       z     vdW  Elec       q    Type
REMARK                         _______ _______ _______ _____ _____    ______ ____
ROOT
ATOM      1  O   UNL     1      33.237  -6.450   4.370  0.00  0.00    +0.000 OA
ATOM      2  O   UNL     1      34.759  -5.388   3.026  0.00  0.00    +0.000 OA
ATOM      3  C   UNL     1      33.217  -8.883   4.440  0.00  0.00    +0.000 A 
ATOM      4  C   UNL     1      32.702  -7.659   4.859  0.00  0.00    +0.000 A 
ATOM      5  C   UNL     1      32.660 -10.059   4.949  0.00  0.00    +0.000 A 
ATOM      6  C   UNL     1      31.649  -7.579   5.769  0.00  0.00    +0.000 A 
ATOM      7  C   UNL     1      34.315  -8.893   3.489  0.00  0.00    +0.000 A 
ATOM      8  C   UNL     1      31.100  -8.756   6.270  0.00  0.00    +0.000 A 
ATOM      9  C   UNL     1      31.604  -9.994   5.862  0.00  0.00    +0.000 A 
ATOM     10  C   UNL     1      34.816  -7.743   3.030  0.00  0.00    +0.000 A 
ATOM     11  C   UNL     1      34.289  -6.435   3.459  0.00  0.00    +0.000 A 
ENDROOT
BRANCH   8  12
ATOM     12  O   UNL     1      30.071  -8.703   7.160  0.00  0.00    +0.000 OA
ATOM     13  H   UNL     1      30.434  -8.673   8.061  0.00  0.00    +0.000 HD
ENDBRANCH   8  12
TORSDOF 1
ENDMDL
