MODEL        6
REMARK  Name = 5281426
REMARK  1 active torsions:
REMARK  status: ('A' for Active; 'I' for Inactive)
REMARK    1  A    between atoms: O_2  and  C_9
REMARK                            x       y       z     vdW  Elec       q    Type
REMARK                         _______ _______ _______ _____ _____    ______ ____
ROOT
ATOM      1  O   UNL     1      22.228   5.218   1.440  0.00  0.00    +0.000 OA
ATOM      2  O   UNL     1      20.281   4.673   2.517  0.00  0.00    +0.000 OA
ATOM      3  C   UNL     1      22.248   7.122  -0.076  0.00  0.00    +0.000 A 
ATOM      4  C   UNL     1      22.910   6.064   0.542  0.00  0.00    +0.000 A 
ATOM      5  C   UNL     1      22.958   7.939  -0.959  0.00  0.00    +0.000 A 
ATOM      6  C   UNL     1      24.258   5.802   0.302  0.00  0.00    +0.000 A 
ATOM      7  C   UNL     1      20.842   7.338   0.220  0.00  0.00    +0.000 A 
ATOM      8  C   UNL     1      24.957   6.621  -0.580  0.00  0.00    +0.000 A 
ATOM      9  C   UNL     1      24.310   7.687  -1.209  0.00  0.00    +0.000 A 
ATOM     10  C   UNL     1      20.203   6.531   1.072  0.00  0.00    +0.000 A 
ATOM     11  C   UNL     1      20.882   5.406   1.739  0.00  0.00    +0.000 A 
ENDROOT
BRANCH   8  12
ATOM     12  O   UNL     1      26.274   6.384  -0.831  0.00  0.00    +0.000 OA
ATOM     13  H   UNL     1      26.756   7.228  -0.812  0.00  0.00    +0.000 HD
ENDBRANCH   8  12
TORSDOF 1
ENDMDL
