MODEL        6
REMARK  Name = 5281426
REMARK  1 active torsions:
REMARK  status: ('A' for Active; 'I' for Inactive)
REMARK    1  A    between atoms: O_2  and  C_9
REMARK                            x       y       z     vdW  Elec       q    Type
REMARK                         _______ _______ _______ _____ _____    ______ ____
ROOT
ATOM      1  O   UNL     1     -11.358 -19.902   9.040  0.00  0.00    +0.000 OA
ATOM      2  O   UNL     1     -11.830 -20.900  11.048  0.00  0.00    +0.000 OA
ATOM      3  C   UNL     1     -10.711 -17.555   9.010  0.00  0.00    +0.000 A 
ATOM      4  C   UNL     1     -10.972 -18.745   8.333  0.00  0.00    +0.000 A 
ATOM      5  C   UNL     1     -10.330 -16.431   8.274  0.00  0.00    +0.000 A 
ATOM      6  C   UNL     1     -10.864 -18.839   6.947  0.00  0.00    +0.000 A 
ATOM      7  C   UNL     1     -10.844 -17.528  10.456  0.00  0.00    +0.000 A 
ATOM      8  C   UNL     1     -10.483 -17.713   6.222  0.00  0.00    +0.000 A 
ATOM      9  C   UNL     1     -10.217 -16.511   6.883  0.00  0.00    +0.000 A 
ATOM     10  C   UNL     1     -11.211 -18.628  11.118  0.00  0.00    +0.000 A 
ATOM     11  C   UNL     1     -11.492 -19.899  10.425  0.00  0.00    +0.000 A 
ENDROOT
BRANCH   8  12
ATOM     12  O   UNL     1     -10.371 -17.781   4.867  0.00  0.00    +0.000 OA
ATOM     13  H   UNL     1      -9.989 -18.642   4.625  0.00  0.00    +0.000 HD
ENDBRANCH   8  12
TORSDOF 1
ENDMDL
