MODEL        6
REMARK  Name = 5281426
REMARK  1 active torsions:
REMARK  status: ('A' for Active; 'I' for Inactive)
REMARK    1  A    between atoms: O_2  and  C_9
REMARK                            x       y       z     vdW  Elec       q    Type
REMARK                         _______ _______ _______ _____ _____    ______ ____
ROOT
ATOM      1  O   UNL     1      14.147  10.556  12.291  0.00  0.00    +0.000 OA
ATOM      2  O   UNL     1      13.325  11.408  10.330  0.00  0.00    +0.000 OA
ATOM      3  C   UNL     1      16.525  10.772  12.770  0.00  0.00    +0.000 A 
ATOM      4  C   UNL     1      15.254  10.334  13.136  0.00  0.00    +0.000 A 
ATOM      5  C   UNL     1      17.595  10.534  13.635  0.00  0.00    +0.000 A 
ATOM      6  C   UNL     1      15.026   9.668  14.339  0.00  0.00    +0.000 A 
ATOM      7  C   UNL     1      16.690  11.461  11.501  0.00  0.00    +0.000 A 
ATOM      8  C   UNL     1      16.100   9.435  15.194  0.00  0.00    +0.000 A 
ATOM      9  C   UNL     1      17.382   9.867  14.844  0.00  0.00    +0.000 A 
ATOM     10  C   UNL     1      15.636  11.666  10.706  0.00  0.00    +0.000 A 
ATOM     11  C   UNL     1      14.282  11.213  11.072  0.00  0.00    +0.000 A 
ENDROOT
BRANCH   8  12
ATOM     12  O   UNL     1      15.902   8.785  16.374  0.00  0.00    +0.000 OA
ATOM     13  H   UNL     1      16.325   7.911  16.327  0.00  0.00    +0.000 HD
ENDBRANCH   8  12
TORSDOF 1
ENDMDL
