MODEL        6
REMARK  Name = 5281426
REMARK  1 active torsions:
REMARK  status: ('A' for Active; 'I' for Inactive)
REMARK    1  A    between atoms: O_2  and  C_9
REMARK                            x       y       z     vdW  Elec       q    Type
REMARK                         _______ _______ _______ _____ _____    ______ ____
ROOT
ATOM      1  O   UNL     1     150.492 172.242 140.131  0.00  0.00    +0.000 OA
ATOM      2  O   UNL     1     148.256 172.608 139.788  0.00  0.00    +0.000 OA
ATOM      3  C   UNL     1     151.368 172.318 142.402  0.00  0.00    +0.000 A 
ATOM      4  C   UNL     1     151.570 172.143 141.034  0.00  0.00    +0.000 A 
ATOM      5  C   UNL     1     152.461 172.210 143.264  0.00  0.00    +0.000 A 
ATOM      6  C   UNL     1     152.830 171.864 140.509  0.00  0.00    +0.000 A 
ATOM      7  C   UNL     1     150.027 172.606 142.880  0.00  0.00    +0.000 A 
ATOM      8  C   UNL     1     153.914 171.759 141.377  0.00  0.00    +0.000 A 
ATOM      9  C   UNL     1     153.731 171.932 142.751  0.00  0.00    +0.000 A 
ATOM     10  C   UNL     1     149.011 172.700 142.018  0.00  0.00    +0.000 A 
ATOM     11  C   UNL     1     149.199 172.517 140.567  0.00  0.00    +0.000 A 
ENDROOT
BRANCH   8  12
ATOM     12  O   UNL     1     155.155 171.489 140.887  0.00  0.00    +0.000 OA
ATOM     13  H   UNL     1     155.136 171.570 139.918  0.00  0.00    +0.000 HD
ENDBRANCH   8  12
TORSDOF 1
ENDMDL
