MODEL        6
REMARK  Name = 5281426
REMARK  1 active torsions:
REMARK  status: ('A' for Active; 'I' for Inactive)
REMARK    1  A    between atoms: O_2  and  C_9
REMARK                            x       y       z     vdW  Elec       q    Type
REMARK                         _______ _______ _______ _____ _____    ______ ____
ROOT
ATOM      1  O   UNL     1      25.856  -0.981   5.110  0.00  0.00    +0.000 OA
ATOM      2  O   UNL     1      27.210   0.783   5.658  0.00  0.00    +0.000 OA
ATOM      3  C   UNL     1      23.723  -1.236   6.256  0.00  0.00    +0.000 A 
ATOM      4  C   UNL     1      24.650  -1.682   5.317  0.00  0.00    +0.000 A 
ATOM      5  C   UNL     1      22.540  -1.957   6.431  0.00  0.00    +0.000 A 
ATOM      6  C   UNL     1      24.426  -2.825   4.551  0.00  0.00    +0.000 A 
ATOM      7  C   UNL     1      24.021  -0.036   7.020  0.00  0.00    +0.000 A 
ATOM      8  C   UNL     1      23.244  -3.537   4.733  0.00  0.00    +0.000 A 
ATOM      9  C   UNL     1      22.302  -3.105   5.670  0.00  0.00    +0.000 A 
ATOM     10  C   UNL     1      25.166   0.621   6.818  0.00  0.00    +0.000 A 
ATOM     11  C   UNL     1      26.162   0.169   5.830  0.00  0.00    +0.000 A 
ENDROOT
BRANCH   8  12
ATOM     12  O   UNL     1      23.004  -4.657   3.997  0.00  0.00    +0.000 OA
ATOM     13  H   UNL     1      22.884  -5.411   4.600  0.00  0.00    +0.000 HD
ENDBRANCH   8  12
TORSDOF 1
ENDMDL
