MODEL        6
REMARK  Name = 5281426
REMARK  1 active torsions:
REMARK  status: ('A' for Active; 'I' for Inactive)
REMARK    1  A    between atoms: O_2  and  C_9
REMARK                            x       y       z     vdW  Elec       q    Type
REMARK                         _______ _______ _______ _____ _____    ______ ____
ROOT
ATOM      1  O   UNL     1       0.122  57.971 -25.037  0.00  0.00    +0.000 OA
ATOM      2  O   UNL     1       0.301  58.678 -27.208  0.00  0.00    +0.000 OA
ATOM      3  C   UNL     1      -1.005  55.865 -24.567  0.00  0.00    +0.000 A 
ATOM      4  C   UNL     1      -0.330  56.999 -24.121  0.00  0.00    +0.000 A 
ATOM      5  C   UNL     1      -1.436  54.924 -23.629  0.00  0.00    +0.000 A 
ATOM      6  C   UNL     1      -0.077  57.217 -22.768  0.00  0.00    +0.000 A 
ATOM      7  C   UNL     1      -1.235  55.702 -25.993  0.00  0.00    +0.000 A 
ATOM      8  C   UNL     1      -0.511  56.273 -21.840  0.00  0.00    +0.000 A 
ATOM      9  C   UNL     1      -1.189  55.130 -22.269  0.00  0.00    +0.000 A 
ATOM     10  C   UNL     1      -0.804  56.628 -26.853  0.00  0.00    +0.000 A 
ATOM     11  C   UNL     1      -0.087  57.836 -26.405  0.00  0.00    +0.000 A 
ENDROOT
BRANCH   8  12
ATOM     12  O   UNL     1      -0.276  56.465 -20.513  0.00  0.00    +0.000 OA
ATOM     13  H   UNL     1       0.317  57.228 -20.405  0.00  0.00    +0.000 HD
ENDBRANCH   8  12
TORSDOF 1
ENDMDL
