MODEL        6
REMARK  Name = 5281426
REMARK  1 active torsions:
REMARK  status: ('A' for Active; 'I' for Inactive)
REMARK    1  A    between atoms: O_2  and  C_9
REMARK                            x       y       z     vdW  Elec       q    Type
REMARK                         _______ _______ _______ _____ _____    ______ ____
ROOT
ATOM      1  O   UNL     1      60.882  31.966  75.430  0.00  0.00    +0.000 OA
ATOM      2  O   UNL     1      61.420  32.867  73.393  0.00  0.00    +0.000 OA
ATOM      3  C   UNL     1      58.716  32.483  76.416  0.00  0.00    +0.000 A 
ATOM      4  C   UNL     1      59.947  31.834  76.477  0.00  0.00    +0.000 A 
ATOM      5  C   UNL     1      57.817  32.326  77.473  0.00  0.00    +0.000 A 
ATOM      6  C   UNL     1      60.302  31.035  77.563  0.00  0.00    +0.000 A 
ATOM      7  C   UNL     1      58.413  33.300  75.254  0.00  0.00    +0.000 A 
ATOM      8  C   UNL     1      59.399  30.884  78.612  0.00  0.00    +0.000 A 
ATOM      9  C   UNL     1      58.159  31.528  78.568  0.00  0.00    +0.000 A 
ATOM     10  C   UNL     1      59.304  33.421  74.266  0.00  0.00    +0.000 A 
ATOM     11  C   UNL     1      60.612  32.743  74.308  0.00  0.00    +0.000 A 
ENDROOT
BRANCH   8  12
ATOM     12  O   UNL     1      59.723  30.110  79.684  0.00  0.00    +0.000 OA
ATOM     13  H   UNL     1      59.284  30.466  80.475  0.00  0.00    +0.000 HD
ENDBRANCH   8  12
TORSDOF 1
ENDMDL
