MODEL        6
REMARK  Name = 5281426
REMARK  1 active torsions:
REMARK  status: ('A' for Active; 'I' for Inactive)
REMARK    1  A    between atoms: O_2  and  C_9
REMARK                            x       y       z     vdW  Elec       q    Type
REMARK                         _______ _______ _______ _____ _____    ______ ____
ROOT
ATOM      1  O   UNL     1      13.256  -0.827  17.880  0.00  0.00    +0.000 OA
ATOM      2  O   UNL     1      14.148  -2.850  18.482  0.00  0.00    +0.000 OA
ATOM      3  C   UNL     1      11.164  -0.781  16.636  0.00  0.00    +0.000 A 
ATOM      4  C   UNL     1      12.225  -0.110  17.241  0.00  0.00    +0.000 A 
ATOM      5  C   UNL     1      10.161  -0.034  16.013  0.00  0.00    +0.000 A 
ATOM      6  C   UNL     1      12.309   1.282  17.240  0.00  0.00    +0.000 A 
ATOM      7  C   UNL     1      11.140  -2.232  16.675  0.00  0.00    +0.000 A 
ATOM      8  C   UNL     1      11.304   2.017  16.616  0.00  0.00    +0.000 A 
ATOM      9  C   UNL     1      10.233   1.362  16.005  0.00  0.00    +0.000 A 
ATOM     10  C   UNL     1      12.122  -2.905  17.282  0.00  0.00    +0.000 A 
ATOM     11  C   UNL     1      13.254  -2.218  17.930  0.00  0.00    +0.000 A 
ENDROOT
BRANCH   8  12
ATOM     12  O   UNL     1      11.366   3.377  16.602  0.00  0.00    +0.000 OA
ATOM     13  H   UNL     1      11.363   3.703  17.518  0.00  0.00    +0.000 HD
ENDBRANCH   8  12
TORSDOF 1
ENDMDL
