MODEL        6
REMARK  Name = 5281426
REMARK  1 active torsions:
REMARK  status: ('A' for Active; 'I' for Inactive)
REMARK    1  A    between atoms: O_2  and  C_9
REMARK                            x       y       z     vdW  Elec       q    Type
REMARK                         _______ _______ _______ _____ _____    ______ ____
ROOT
ATOM      1  O   UNL     1      13.185  36.623  77.258  0.00  0.00    +0.000 OA
ATOM      2  O   UNL     1      12.102  36.586  75.239  0.00  0.00    +0.000 OA
ATOM      3  C   UNL     1      13.732  38.769  78.267  0.00  0.00    +0.000 A 
ATOM      4  C   UNL     1      13.751  37.377  78.306  0.00  0.00    +0.000 A 
ATOM      5  C   UNL     1      14.302  39.481  79.326  0.00  0.00    +0.000 A 
ATOM      6  C   UNL     1      14.322  36.680  79.369  0.00  0.00    +0.000 A 
ATOM      7  C   UNL     1      13.121  39.431  77.128  0.00  0.00    +0.000 A 
ATOM      8  C   UNL     1      14.888  37.398  80.420  0.00  0.00    +0.000 A 
ATOM      9  C   UNL     1      14.878  38.795  80.399  0.00  0.00    +0.000 A 
ATOM     10  C   UNL     1      12.587  38.709  76.138  0.00  0.00    +0.000 A 
ATOM     11  C   UNL     1      12.594  37.235  76.157  0.00  0.00    +0.000 A 
ENDROOT
BRANCH   8  12
ATOM     12  O   UNL     1      15.452  36.739  81.469  0.00  0.00    +0.000 OA
ATOM     13  H   UNL     1      16.125  37.312  81.875  0.00  0.00    +0.000 HD
ENDBRANCH   8  12
TORSDOF 1
ENDMDL
