MODEL        6
REMARK  Name = 5281426
REMARK  1 active torsions:
REMARK  status: ('A' for Active; 'I' for Inactive)
REMARK    1  A    between atoms: O_2  and  C_9
REMARK                            x       y       z     vdW  Elec       q    Type
REMARK                         _______ _______ _______ _____ _____    ______ ____
ROOT
ATOM      1  O   UNL     1     -38.150  29.279   8.241  0.00  0.00    +0.000 OA
ATOM      2  O   UNL     1     -37.668  27.449   9.533  0.00  0.00    +0.000 OA
ATOM      3  C   UNL     1     -39.046  28.942   6.002  0.00  0.00    +0.000 A 
ATOM      4  C   UNL     1     -38.625  29.797   7.019  0.00  0.00    +0.000 A 
ATOM      5  C   UNL     1     -39.511  29.494   4.807  0.00  0.00    +0.000 A 
ATOM      6  C   UNL     1     -38.658  31.183   6.873  0.00  0.00    +0.000 A 
ATOM      7  C   UNL     1     -38.985  27.508   6.223  0.00  0.00    +0.000 A 
ATOM      8  C   UNL     1     -39.123  31.723   5.677  0.00  0.00    +0.000 A 
ATOM      9  C   UNL     1     -39.549  30.882   4.646  0.00  0.00    +0.000 A 
ATOM     10  C   UNL     1     -38.532  27.025   7.384  0.00  0.00    +0.000 A 
ATOM     11  C   UNL     1     -38.083  27.909   8.474  0.00  0.00    +0.000 A 
ENDROOT
BRANCH   8  12
ATOM     12  O   UNL     1     -39.163  33.074   5.511  0.00  0.00    +0.000 OA
ATOM     13  H   UNL     1     -39.525  33.480   6.316  0.00  0.00    +0.000 HD
ENDBRANCH   8  12
TORSDOF 1
ENDMDL
