MODEL        6
REMARK  Name = 5281426
REMARK  1 active torsions:
REMARK  status: ('A' for Active; 'I' for Inactive)
REMARK    1  A    between atoms: O_2  and  C_9
REMARK                            x       y       z     vdW  Elec       q    Type
REMARK                         _______ _______ _______ _____ _____    ______ ____
ROOT
ATOM      1  O   UNL     1      15.847 123.219  20.354  0.00  0.00    +0.000 OA
ATOM      2  O   UNL     1      17.891 124.245  20.208  0.00  0.00    +0.000 OA
ATOM      3  C   UNL     1      14.944 122.100  18.389  0.00  0.00    +0.000 A 
ATOM      4  C   UNL     1      14.826 122.478  19.725  0.00  0.00    +0.000 A 
ATOM      5  C   UNL     1      13.910 121.366  17.803  0.00  0.00    +0.000 A 
ATOM      6  C   UNL     1      13.707 122.143  20.486  0.00  0.00    +0.000 A 
ATOM      7  C   UNL     1      16.137 122.484  17.655  0.00  0.00    +0.000 A 
ATOM      8  C   UNL     1      12.683 121.410  19.893  0.00  0.00    +0.000 A 
ATOM      9  C   UNL     1      12.783 121.022  18.554  0.00  0.00    +0.000 A 
ATOM     10  C   UNL     1      17.100 123.187  18.258  0.00  0.00    +0.000 A 
ATOM     11  C   UNL     1      16.998 123.598  19.670  0.00  0.00    +0.000 A 
ENDROOT
BRANCH   8  12
ATOM     12  O   UNL     1      11.580 121.072  20.616  0.00  0.00    +0.000 OA
ATOM     13  H   UNL     1      10.869 121.706  20.422  0.00  0.00    +0.000 HD
ENDBRANCH   8  12
TORSDOF 1
ENDMDL
