MODEL        6
REMARK  Name = 5281426
REMARK  1 active torsions:
REMARK  status: ('A' for Active; 'I' for Inactive)
REMARK    1  A    between atoms: O_2  and  C_9
REMARK                            x       y       z     vdW  Elec       q    Type
REMARK                         _______ _______ _______ _____ _____    ______ ____
ROOT
ATOM      1  O   UNL     1     -14.474  10.375 -38.447  0.00  0.00    +0.000 OA
ATOM      2  O   UNL     1     -14.809   8.110 -38.360  0.00  0.00    +0.000 OA
ATOM      3  C   UNL     1     -13.372  11.333 -40.395  0.00  0.00    +0.000 A 
ATOM      4  C   UNL     1     -13.976  11.491 -39.150  0.00  0.00    +0.000 A 
ATOM      5  C   UNL     1     -12.892  12.464 -41.060  0.00  0.00    +0.000 A 
ATOM      6  C   UNL     1     -14.112  12.744 -38.554  0.00  0.00    +0.000 A 
ATOM      7  C   UNL     1     -13.264   9.998 -40.957  0.00  0.00    +0.000 A 
ATOM      8  C   UNL     1     -13.630  13.865 -39.225  0.00  0.00    +0.000 A 
ATOM      9  C   UNL     1     -13.022  13.727 -40.475  0.00  0.00    +0.000 A 
ATOM     10  C   UNL     1     -13.737   8.946 -40.284  0.00  0.00    +0.000 A 
ATOM     11  C   UNL     1     -14.381   9.087 -38.966  0.00  0.00    +0.000 A 
ENDROOT
BRANCH   8  12
ATOM     12  O   UNL     1     -13.751  15.099 -38.663  0.00  0.00    +0.000 OA
ATOM     13  H   UNL     1     -13.233  15.123 -37.840  0.00  0.00    +0.000 HD
ENDBRANCH   8  12
TORSDOF 1
ENDMDL
