MODEL        6
REMARK  Name = 5281426
REMARK  1 active torsions:
REMARK  status: ('A' for Active; 'I' for Inactive)
REMARK    1  A    between atoms: O_2  and  C_9
REMARK                            x       y       z     vdW  Elec       q    Type
REMARK                         _______ _______ _______ _____ _____    ______ ____
ROOT
ATOM      1  O   UNL     1     -43.400  36.337  -6.361  0.00  0.00    +0.000 OA
ATOM      2  O   UNL     1     -44.850  34.709  -5.656  0.00  0.00    +0.000 OA
ATOM      3  C   UNL     1     -44.102  37.863  -8.123  0.00  0.00    +0.000 A 
ATOM      4  C   UNL     1     -43.139  37.428  -7.216  0.00  0.00    +0.000 A 
ATOM      5  C   UNL     1     -43.806  38.948  -8.951  0.00  0.00    +0.000 A 
ATOM      6  C   UNL     1     -41.894  38.045  -7.115  0.00  0.00    +0.000 A 
ATOM      7  C   UNL     1     -45.380  37.173  -8.174  0.00  0.00    +0.000 A 
ATOM      8  C   UNL     1     -41.608  39.126  -7.945  0.00  0.00    +0.000 A 
ATOM      9  C   UNL     1     -42.561  39.577  -8.861  0.00  0.00    +0.000 A 
ATOM     10  C   UNL     1     -45.619  36.140  -7.362  0.00  0.00    +0.000 A 
ATOM     11  C   UNL     1     -44.616  35.661  -6.393  0.00  0.00    +0.000 A 
ENDROOT
BRANCH   8  12
ATOM     12  O   UNL     1     -40.398  39.744  -7.865  0.00  0.00    +0.000 OA
ATOM     13  H   UNL     1     -40.020  39.814  -8.759  0.00  0.00    +0.000 HD
ENDBRANCH   8  12
TORSDOF 1
ENDMDL
