MODEL        6
REMARK  Name = 5281426
REMARK  1 active torsions:
REMARK  status: ('A' for Active; 'I' for Inactive)
REMARK    1  A    between atoms: O_2  and  C_9
REMARK                            x       y       z     vdW  Elec       q    Type
REMARK                         _______ _______ _______ _____ _____    ______ ____
ROOT
ATOM      1  O   UNL     1       8.560   9.446  95.729  0.00  0.00    +0.000 OA
ATOM      2  O   UNL     1       6.304   9.709  96.032  0.00  0.00    +0.000 OA
ATOM      3  C   UNL     1       9.351   7.887  94.034  0.00  0.00    +0.000 A 
ATOM      4  C   UNL     1       9.615   8.815  95.039  0.00  0.00    +0.000 A 
ATOM      5  C   UNL     1      10.425   7.285  93.374  0.00  0.00    +0.000 A 
ATOM      6  C   UNL     1      10.918   9.155  95.400  0.00  0.00    +0.000 A 
ATOM      7  C   UNL     1       7.969   7.580  93.710  0.00  0.00    +0.000 A 
ATOM      8  C   UNL     1      11.981   8.549  94.735  0.00  0.00    +0.000 A 
ATOM      9  C   UNL     1      11.736   7.616  93.725  0.00  0.00    +0.000 A 
ATOM     10  C   UNL     1       6.975   8.181  94.369  0.00  0.00    +0.000 A 
ATOM     11  C   UNL     1       7.228   9.167  95.435  0.00  0.00    +0.000 A 
ENDROOT
BRANCH   8  12
ATOM     12  O   UNL     1      13.263   8.865  95.071  0.00  0.00    +0.000 OA
ATOM     13  H   UNL     1      13.760   8.044  95.224  0.00  0.00    +0.000 HD
ENDBRANCH   8  12
TORSDOF 1
ENDMDL
