MODEL        6
REMARK  Name = 5281426
REMARK  1 active torsions:
REMARK  status: ('A' for Active; 'I' for Inactive)
REMARK    1  A    between atoms: O_2  and  C_9
REMARK                            x       y       z     vdW  Elec       q    Type
REMARK                         _______ _______ _______ _____ _____    ______ ____
ROOT
ATOM      1  O   UNL     1       1.067  15.723  20.378  0.00  0.00    +0.000 OA
ATOM      2  O   UNL     1      -1.104  16.433  20.205  0.00  0.00    +0.000 OA
ATOM      3  C   UNL     1       1.806  13.838  19.026  0.00  0.00    +0.000 A 
ATOM      4  C   UNL     1       2.075  14.825  19.972  0.00  0.00    +0.000 A 
ATOM      5  C   UNL     1       2.832  12.968  18.649  0.00  0.00    +0.000 A 
ATOM      6  C   UNL     1       3.336  14.964  20.549  0.00  0.00    +0.000 A 
ATOM      7  C   UNL     1       0.469  13.750  18.466  0.00  0.00    +0.000 A 
ATOM      8  C   UNL     1       4.352  14.091  20.167  0.00  0.00    +0.000 A 
ATOM      9  C   UNL     1       4.102  13.096  19.219  0.00  0.00    +0.000 A 
ATOM     10  C   UNL     1      -0.481  14.604  18.857  0.00  0.00    +0.000 A 
ATOM     11  C   UNL     1      -0.221  15.657  19.855  0.00  0.00    +0.000 A 
ENDROOT
BRANCH   8  12
ATOM     12  O   UNL     1       5.592  14.208  20.717  0.00  0.00    +0.000 OA
ATOM     13  H   UNL     1       5.955  15.082  20.494  0.00  0.00    +0.000 HD
ENDBRANCH   8  12
TORSDOF 1
ENDMDL
