MODEL        6
REMARK  Name = 5281426
REMARK  1 active torsions:
REMARK  status: ('A' for Active; 'I' for Inactive)
REMARK    1  A    between atoms: O_2  and  C_9
REMARK                            x       y       z     vdW  Elec       q    Type
REMARK                         _______ _______ _______ _____ _____    ______ ____
ROOT
ATOM      1  O   UNL     1      28.770   3.743  59.292  0.00  0.00    +0.000 OA
ATOM      2  O   UNL     1      28.038   3.628  61.460  0.00  0.00    +0.000 OA
ATOM      3  C   UNL     1      28.397   5.788  58.025  0.00  0.00    +0.000 A 
ATOM      4  C   UNL     1      28.893   4.489  58.102  0.00  0.00    +0.000 A 
ATOM      5  C   UNL     1      28.540   6.494  56.828  0.00  0.00    +0.000 A 
ATOM      6  C   UNL     1      29.526   3.880  57.019  0.00  0.00    +0.000 A 
ATOM      7  C   UNL     1      27.748   6.360  59.192  0.00  0.00    +0.000 A 
ATOM      8  C   UNL     1      29.664   4.592  55.831  0.00  0.00    +0.000 A 
ATOM      9  C   UNL     1      29.172   5.897  55.735  0.00  0.00    +0.000 A 
ATOM     10  C   UNL     1      27.634   5.647  60.315  0.00  0.00    +0.000 A 
ATOM     11  C   UNL     1      28.152   4.271  60.421  0.00  0.00    +0.000 A 
ENDROOT
BRANCH   8  12
ATOM     12  O   UNL     1      30.278   4.018  54.760  0.00  0.00    +0.000 OA
ATOM     13  H   UNL     1      30.693   4.715  54.224  0.00  0.00    +0.000 HD
ENDBRANCH   8  12
TORSDOF 1
ENDMDL
