MODEL        6
REMARK  Name = 5281426
REMARK  1 active torsions:
REMARK  status: ('A' for Active; 'I' for Inactive)
REMARK    1  A    between atoms: O_2  and  C_9
REMARK                            x       y       z     vdW  Elec       q    Type
REMARK                         _______ _______ _______ _____ _____    ______ ____
ROOT
ATOM      1  O   UNL     1      20.450  -0.246   5.513  0.00  0.00    +0.000 OA
ATOM      2  O   UNL     1      21.146   0.847   3.624  0.00  0.00    +0.000 OA
ATOM      3  C   UNL     1      21.886  -1.954   6.488  0.00  0.00    +0.000 A 
ATOM      4  C   UNL     1      20.704  -1.216   6.505  0.00  0.00    +0.000 A 
ATOM      5  C   UNL     1      22.101  -2.905   7.489  0.00  0.00    +0.000 A 
ATOM      6  C   UNL     1      19.736  -1.403   7.490  0.00  0.00    +0.000 A 
ATOM      7  C   UNL     1      22.851  -1.707   5.432  0.00  0.00    +0.000 A 
ATOM      8  C   UNL     1      19.960  -2.353   8.483  0.00  0.00    +0.000 A 
ATOM      9  C   UNL     1      21.139  -3.103   8.483  0.00  0.00    +0.000 A 
ATOM     10  C   UNL     1      22.602  -0.787   4.496  0.00  0.00    +0.000 A 
ATOM     11  C   UNL     1      21.360   0.007   4.492  0.00  0.00    +0.000 A 
ENDROOT
BRANCH   8  12
ATOM     12  O   UNL     1      19.028  -2.554   9.455  0.00  0.00    +0.000 OA
ATOM     13  H   UNL     1      18.458  -1.768   9.513  0.00  0.00    +0.000 HD
ENDBRANCH   8  12
TORSDOF 1
ENDMDL
