MODEL        6
REMARK  Name = 5281426
REMARK  1 active torsions:
REMARK  status: ('A' for Active; 'I' for Inactive)
REMARK    1  A    between atoms: O_2  and  C_9
REMARK                            x       y       z     vdW  Elec       q    Type
REMARK                         _______ _______ _______ _____ _____    ______ ____
ROOT
ATOM      1  O   UNL     1      28.887  81.568  27.216  0.00  0.00    +0.000 OA
ATOM      2  O   UNL     1      29.865  80.143  28.720  0.00  0.00    +0.000 OA
ATOM      3  C   UNL     1      29.686  83.863  27.069  0.00  0.00    +0.000 A 
ATOM      4  C   UNL     1      28.822  82.856  26.645  0.00  0.00    +0.000 A 
ATOM      5  C   UNL     1      29.592  85.125  26.478  0.00  0.00    +0.000 A 
ATOM      6  C   UNL     1      27.872  83.075  25.650  0.00  0.00    +0.000 A 
ATOM      7  C   UNL     1      30.653  83.564  28.111  0.00  0.00    +0.000 A 
ATOM      8  C   UNL     1      27.786  84.337  25.067  0.00  0.00    +0.000 A 
ATOM      9  C   UNL     1      28.643  85.360  25.479  0.00  0.00    +0.000 A 
ATOM     10  C   UNL     1      30.706  82.342  28.648  0.00  0.00    +0.000 A 
ATOM     11  C   UNL     1      29.805  81.260  28.215  0.00  0.00    +0.000 A 
ENDROOT
BRANCH   8  12
ATOM     12  O   UNL     1      26.864  84.575  24.093  0.00  0.00    +0.000 OA
ATOM     13  H   UNL     1      26.748  83.767  23.564  0.00  0.00    +0.000 HD
ENDBRANCH   8  12
TORSDOF 1
ENDMDL
