MODEL        6
REMARK  Name = 5281426
REMARK  1 active torsions:
REMARK  status: ('A' for Active; 'I' for Inactive)
REMARK    1  A    between atoms: O_2  and  C_9
REMARK                            x       y       z     vdW  Elec       q    Type
REMARK                         _______ _______ _______ _____ _____    ______ ____
ROOT
ATOM      1  O   UNL     1      28.559  38.254  17.416  0.00  0.00    +0.000 OA
ATOM      2  O   UNL     1      26.581  38.822  18.424  0.00  0.00    +0.000 OA
ATOM      3  C   UNL     1      28.708  38.314  14.987  0.00  0.00    +0.000 A 
ATOM      4  C   UNL     1      29.296  38.076  16.227  0.00  0.00    +0.000 A 
ATOM      5  C   UNL     1      29.472  38.128  13.832  0.00  0.00    +0.000 A 
ATOM      6  C   UNL     1      30.621  37.659  16.343  0.00  0.00    +0.000 A 
ATOM      7  C   UNL     1      27.322  38.747  14.939  0.00  0.00    +0.000 A 
ATOM      8  C   UNL     1      31.374  37.476  15.186  0.00  0.00    +0.000 A 
ATOM      9  C   UNL     1      30.802  37.710  13.933  0.00  0.00    +0.000 A 
ATOM     10  C   UNL     1      26.631  38.912  16.070  0.00  0.00    +0.000 A 
ATOM     11  C   UNL     1      27.231  38.668  17.394  0.00  0.00    +0.000 A 
ENDROOT
BRANCH   8  12
ATOM     12  O   UNL     1      32.670  37.068  15.275  0.00  0.00    +0.000 OA
ATOM     13  H   UNL     1      33.016  37.308  16.151  0.00  0.00    +0.000 HD
ENDBRANCH   8  12
TORSDOF 1
ENDMDL
