MODEL        6
REMARK  Name = 5281426
REMARK  1 active torsions:
REMARK  status: ('A' for Active; 'I' for Inactive)
REMARK    1  A    between atoms: O_2  and  C_9
REMARK                            x       y       z     vdW  Elec       q    Type
REMARK                         _______ _______ _______ _____ _____    ______ ____
ROOT
ATOM      1  O   UNL     1      34.786 -10.933 -11.948  0.00  0.00    +0.000 OA
ATOM      2  O   UNL     1      34.740  -8.980 -13.145  0.00  0.00    +0.000 OA
ATOM      3  C   UNL     1      36.934 -11.842 -11.249  0.00  0.00    +0.000 A 
ATOM      4  C   UNL     1      35.544 -11.925 -11.293  0.00  0.00    +0.000 A 
ATOM      5  C   UNL     1      37.649 -12.844 -10.590  0.00  0.00    +0.000 A 
ATOM      6  C   UNL     1      34.853 -12.979 -10.697  0.00  0.00    +0.000 A 
ATOM      7  C   UNL     1      37.588 -10.716 -11.892  0.00  0.00    +0.000 A 
ATOM      8  C   UNL     1      35.575 -13.973 -10.041  0.00  0.00    +0.000 A 
ATOM      9  C   UNL     1      36.969 -13.907  -9.987  0.00  0.00    +0.000 A 
ATOM     10  C   UNL     1      36.863  -9.781 -12.512  0.00  0.00    +0.000 A 
ATOM     11  C   UNL     1      35.392  -9.846 -12.570  0.00  0.00    +0.000 A 
ENDROOT
BRANCH   8  12
ATOM     12  O   UNL     1      34.922 -15.013  -9.453  0.00  0.00    +0.000 OA
ATOM     13  H   UNL     1      35.131 -15.019  -8.503  0.00  0.00    +0.000 HD
ENDBRANCH   8  12
TORSDOF 1
ENDMDL
