MODEL        6
REMARK  Name = 5281426
REMARK  1 active torsions:
REMARK  status: ('A' for Active; 'I' for Inactive)
REMARK    1  A    between atoms: O_2  and  C_9
REMARK                            x       y       z     vdW  Elec       q    Type
REMARK                         _______ _______ _______ _____ _____    ______ ____
ROOT
ATOM      1  O   UNL     1     -29.107  -5.049 -12.342  0.00  0.00    +0.000 OA
ATOM      2  O   UNL     1     -28.376  -6.993 -13.311  0.00  0.00    +0.000 OA
ATOM      3  C   UNL     1     -31.225  -5.050 -11.142  0.00  0.00    +0.000 A 
ATOM      4  C   UNL     1     -30.092  -4.375 -11.593  0.00  0.00    +0.000 A 
ATOM      5  C   UNL     1     -32.178  -4.347 -10.401  0.00  0.00    +0.000 A 
ATOM      6  C   UNL     1     -29.889  -3.023 -11.324  0.00  0.00    +0.000 A 
ATOM      7  C   UNL     1     -31.373  -6.460 -11.458  0.00  0.00    +0.000 A 
ATOM      8  C   UNL     1     -30.845  -2.331 -10.585  0.00  0.00    +0.000 A 
ATOM      9  C   UNL     1     -31.987  -2.990 -10.124  0.00  0.00    +0.000 A 
ATOM     10  C   UNL     1     -30.435  -7.091 -12.170  0.00  0.00    +0.000 A 
ATOM     11  C   UNL     1     -29.228  -6.399 -12.657  0.00  0.00    +0.000 A 
ENDROOT
BRANCH   8  12
ATOM     12  O   UNL     1     -30.668  -1.009 -10.311  0.00  0.00    +0.000 OA
ATOM     13  H   UNL     1     -31.021  -0.484 -11.050  0.00  0.00    +0.000 HD
ENDBRANCH   8  12
TORSDOF 1
ENDMDL
