MODEL        6
REMARK  Name = 5281426
REMARK  1 active torsions:
REMARK  status: ('A' for Active; 'I' for Inactive)
REMARK    1  A    between atoms: O_2  and  C_9
REMARK                            x       y       z     vdW  Elec       q    Type
REMARK                         _______ _______ _______ _____ _____    ______ ____
ROOT
ATOM      1  O   UNL     1      22.600  37.334  14.319  0.00  0.00    +0.000 OA
ATOM      2  O   UNL     1      24.848  37.695  14.062  0.00  0.00    +0.000 OA
ATOM      3  C   UNL     1      21.293  36.601  12.400  0.00  0.00    +0.000 A 
ATOM      4  C   UNL     1      21.369  36.957  13.745  0.00  0.00    +0.000 A 
ATOM      5  C   UNL     1      20.055  36.233  11.868  0.00  0.00    +0.000 A 
ATOM      6  C   UNL     1      20.245  36.954  14.568  0.00  0.00    +0.000 A 
ATOM      7  C   UNL     1      22.505  36.627  11.599  0.00  0.00    +0.000 A 
ATOM      8  C   UNL     1      19.015  36.585  14.029  0.00  0.00    +0.000 A 
ATOM      9  C   UNL     1      18.919  36.225  12.683  0.00  0.00    +0.000 A 
ATOM     10  C   UNL     1      23.667  36.986  12.150  0.00  0.00    +0.000 A 
ATOM     11  C   UNL     1      23.773  37.366  13.571  0.00  0.00    +0.000 A 
ENDROOT
BRANCH   8  12
ATOM     12  O   UNL     1      17.903  36.575  14.815  0.00  0.00    +0.000 OA
ATOM     13  H   UNL     1      17.363  37.357  14.606  0.00  0.00    +0.000 HD
ENDBRANCH   8  12
TORSDOF 1
ENDMDL
