MODEL        6
REMARK  Name = 5281426
REMARK  1 active torsions:
REMARK  status: ('A' for Active; 'I' for Inactive)
REMARK    1  A    between atoms: O_2  and  C_9
REMARK                            x       y       z     vdW  Elec       q    Type
REMARK                         _______ _______ _______ _____ _____    ______ ____
ROOT
ATOM      1  O   UNL     1     -12.359  -5.924 -22.453  0.00  0.00    +0.000 OA
ATOM      2  O   UNL     1     -14.351  -5.412 -21.444  0.00  0.00    +0.000 OA
ATOM      3  C   UNL     1     -10.574  -4.268 -22.456  0.00  0.00    +0.000 A 
ATOM      4  C   UNL     1     -11.052  -5.529 -22.805  0.00  0.00    +0.000 A 
ATOM      5  C   UNL     1      -9.274  -3.914 -22.822  0.00  0.00    +0.000 A 
ATOM      6  C   UNL     1     -10.267  -6.442 -23.508  0.00  0.00    +0.000 A 
ATOM      7  C   UNL     1     -11.447  -3.366 -21.723  0.00  0.00    +0.000 A 
ATOM      8  C   UNL     1      -8.972  -6.080 -23.868  0.00  0.00    +0.000 A 
ATOM      9  C   UNL     1      -8.475  -4.819 -23.527  0.00  0.00    +0.000 A 
ATOM     10  C   UNL     1     -12.684  -3.748 -21.394  0.00  0.00    +0.000 A 
ATOM     11  C   UNL     1     -13.211  -5.077 -21.751  0.00  0.00    +0.000 A 
ENDROOT
BRANCH   8  12
ATOM     12  O   UNL     1      -8.187  -6.954 -24.556  0.00  0.00    +0.000 OA
ATOM     13  H   UNL     1      -7.526  -7.328 -23.949  0.00  0.00    +0.000 HD
ENDBRANCH   8  12
TORSDOF 1
ENDMDL
