MODEL        6
REMARK  Name = 5281426
REMARK  1 active torsions:
REMARK  status: ('A' for Active; 'I' for Inactive)
REMARK    1  A    between atoms: O_2  and  C_9
REMARK                            x       y       z     vdW  Elec       q    Type
REMARK                         _______ _______ _______ _____ _____    ______ ____
ROOT
ATOM      1  O   UNL     1     -22.627  -1.066  -9.650  0.00  0.00    +0.000 OA
ATOM      2  O   UNL     1     -23.213   1.058  -9.020  0.00  0.00    +0.000 OA
ATOM      3  C   UNL     1     -21.089  -1.365 -11.513  0.00  0.00    +0.000 A 
ATOM      4  C   UNL     1     -21.894  -1.906 -10.513  0.00  0.00    +0.000 A 
ATOM      5  C   UNL     1     -20.377  -2.231 -12.347  0.00  0.00    +0.000 A 
ATOM      6  C   UNL     1     -22.006  -3.283 -10.325  0.00  0.00    +0.000 A 
ATOM      7  C   UNL     1     -21.019   0.079 -11.652  0.00  0.00    +0.000 A 
ATOM      8  C   UNL     1     -21.292  -4.137 -11.162  0.00  0.00    +0.000 A 
ATOM      9  C   UNL     1     -20.480  -3.613 -12.171  0.00  0.00    +0.000 A 
ATOM     10  C   UNL     1     -21.718   0.868 -10.831  0.00  0.00    +0.000 A 
ATOM     11  C   UNL     1     -22.576   0.320  -9.765  0.00  0.00    +0.000 A 
ENDROOT
BRANCH   8  12
ATOM     12  O   UNL     1     -21.386  -5.485 -10.998  0.00  0.00    +0.000 OA
ATOM     13  H   UNL     1     -21.772  -5.671 -10.125  0.00  0.00    +0.000 HD
ENDBRANCH   8  12
TORSDOF 1
ENDMDL
