MODEL        2
REMARK  Name = 10466307
REMARK  6 active torsions:
REMARK  status: ('A' for Active; 'I' for Inactive)
REMARK    1  A    between atoms: O_2  and  C_9
REMARK    2  A    between atoms: O_3  and  C_11
REMARK    3  A    between atoms: O_4  and  C_15
REMARK    4  A    between atoms: O_4  and  C_16
REMARK    5  A    between atoms: C_8  and  C_13
REMARK    6  A    between atoms: C_12  and  C_15
REMARK                            x       y       z     vdW  Elec       q    Type
REMARK                         _______ _______ _______ _____ _____    ______ ____
ROOT
ATOM      1  O   UNL     1     -47.363  36.337 -11.606  0.00  0.00    +0.000 OA
ATOM      2  C   UNL     1     -49.841  36.296 -11.473  0.00  0.00    +0.000 C 
ATOM      3  C   UNL     1     -49.913  35.234 -12.599  0.00  0.00    +0.000 C 
ATOM      4  C   UNL     1     -50.013  35.473 -10.184  0.00  0.00    +0.000 C 
ATOM      5  C   UNL     1     -51.114  34.487 -10.581  0.00  0.00    +0.000 C 
ATOM      6  C   UNL     1     -50.737  34.067 -12.002  0.00  0.00    +0.000 C 
ATOM      7  C   UNL     1     -48.555  37.130 -11.536  0.00  0.00    +0.000 C 
ATOM      8  C   UNL     1     -48.542  34.798 -13.032  0.00  0.00    +0.000 C 
ATOM      9  C   UNL     1     -50.358  36.321  -8.966  0.00  0.00    +0.000 C 
ATOM     10  C   UNL     1     -47.420  35.317 -12.520  0.00  0.00    +0.000 C 
ENDROOT
BRANCH   5  11
ATOM     11  O   UNL     1     -52.387  35.125 -10.595  0.00  0.00    +0.000 OA
ATOM     12  H   UNL     1     -52.233  36.081 -10.695  0.00  0.00    +0.000 HD
ENDBRANCH   5  11
BRANCH   7  13
ATOM     13  O   UNL     1     -48.648  38.017 -12.656  0.00  0.00    +0.000 OA
ATOM     14  H   UNL     1     -48.686  37.494 -13.473  0.00  0.00    +0.000 HD
ENDBRANCH   7  13
BRANCH   8  16
ATOM     15  O   UNL     1     -48.667  32.581 -13.858  0.00  0.00    +0.000 OA
ATOM     16  C   UNL     1     -48.395  33.756 -14.049  0.00  0.00    +0.000 C 
BRANCH  16  17
ATOM     17  O   UNL     1     -47.923  34.323 -15.188  0.00  0.00    +0.000 OA
ATOM     18  C   UNL     1     -46.498  34.449 -15.266  0.00  0.00    +0.000 C 
ENDBRANCH  16  17
ENDBRANCH   8  16
TORSDOF 4
ENDMDL
