MODEL        2
REMARK  Name = 10466307
REMARK  6 active torsions:
REMARK  status: ('A' for Active; 'I' for Inactive)
REMARK    1  A    between atoms: O_2  and  C_9
REMARK    2  A    between atoms: O_3  and  C_11
REMARK    3  A    between atoms: O_4  and  C_15
REMARK    4  A    between atoms: O_4  and  C_16
REMARK    5  A    between atoms: C_8  and  C_13
REMARK    6  A    between atoms: C_12  and  C_15
REMARK                            x       y       z     vdW  Elec       q    Type
REMARK                         _______ _______ _______ _____ _____    ______ ____
ROOT
ATOM      1  O   UNL     1     -31.576-109.643 196.589  0.00  0.00    +0.000 OA
ATOM      2  C   UNL     1     -32.946-108.234 195.075  0.00  0.00    +0.000 C 
ATOM      3  C   UNL     1     -32.271-108.863 193.830  0.00  0.00    +0.000 C 
ATOM      4  C   UNL     1     -34.289-108.981 195.177  0.00  0.00    +0.000 C 
ATOM      5  C   UNL     1     -34.725-109.054 193.712  0.00  0.00    +0.000 C 
ATOM      6  C   UNL     1     -33.437-109.394 192.961  0.00  0.00    +0.000 C 
ATOM      7  C   UNL     1     -32.065-108.322 196.326  0.00  0.00    +0.000 C 
ATOM      8  C   UNL     1     -31.311-109.952 194.218  0.00  0.00    +0.000 C 
ATOM      9  C   UNL     1     -35.298-108.290 196.085  0.00  0.00    +0.000 C 
ATOM     10  C   UNL     1     -31.061-110.280 195.490  0.00  0.00    +0.000 C 
ENDROOT
BRANCH   5  11
ATOM     11  O   UNL     1     -35.219-107.795 193.266  0.00  0.00    +0.000 OA
ATOM     12  H   UNL     1     -34.449-107.241 193.048  0.00  0.00    +0.000 HD
ENDBRANCH   5  11
BRANCH   7  13
ATOM     13  O   UNL     1     -30.985-107.394 196.183  0.00  0.00    +0.000 OA
ATOM     14  H   UNL     1     -30.769-107.020 197.052  0.00  0.00    +0.000 HD
ENDBRANCH   7  13
BRANCH   8  16
ATOM     15  O   UNL     1     -30.839-111.884 192.930  0.00  0.00    +0.000 OA
ATOM     16  C   UNL     1     -30.611-110.711 193.180  0.00  0.00    +0.000 C 
BRANCH  16  17
ATOM     17  O   UNL     1     -29.706-109.896 192.580  0.00  0.00    +0.000 OA
ATOM     18  C   UNL     1     -30.208-109.127 191.481  0.00  0.00    +0.000 C 
ENDBRANCH  16  17
ENDBRANCH   8  16
TORSDOF 4
ENDMDL
