MODEL        2
REMARK  Name = 10466307
REMARK  6 active torsions:
REMARK  status: ('A' for Active; 'I' for Inactive)
REMARK    1  A    between atoms: O_2  and  C_9
REMARK    2  A    between atoms: O_3  and  C_11
REMARK    3  A    between atoms: O_4  and  C_15
REMARK    4  A    between atoms: O_4  and  C_16
REMARK    5  A    between atoms: C_8  and  C_13
REMARK    6  A    between atoms: C_12  and  C_15
REMARK                            x       y       z     vdW  Elec       q    Type
REMARK                         _______ _______ _______ _____ _____    ______ ____
ROOT
ATOM      1  O   UNL     1      56.895  33.744  76.202  0.00  0.00    +0.000 OA
ATOM      2  C   UNL     1      59.308  33.795  75.629  0.00  0.00    +0.000 C 
ATOM      3  C   UNL     1      59.621  32.743  76.722  0.00  0.00    +0.000 C 
ATOM      4  C   UNL     1      59.279  32.971  74.329  0.00  0.00    +0.000 C 
ATOM      5  C   UNL     1      60.470  32.029  74.521  0.00  0.00    +0.000 C 
ATOM      6  C   UNL     1      60.368  31.603  75.986  0.00  0.00    +0.000 C 
ATOM      7  C   UNL     1      58.025  34.580  75.922  0.00  0.00    +0.000 C 
ATOM      8  C   UNL     1      58.367  32.258  77.393  0.00  0.00    +0.000 C 
ATOM      9  C   UNL     1      59.369  33.825  73.070  0.00  0.00    +0.000 C 
ATOM     10  C   UNL     1      57.152  32.731  77.090  0.00  0.00    +0.000 C 
ENDROOT
BRANCH   5  11
ATOM     11  O   UNL     1      61.699  32.714  74.308  0.00  0.00    +0.000 OA
ATOM     12  H   UNL     1      62.236  32.170  73.706  0.00  0.00    +0.000 HD
ENDBRANCH   5  11
BRANCH   7  13
ATOM     13  O   UNL     1      58.282  35.476  77.008  0.00  0.00    +0.000 OA
ATOM     14  H   UNL     1      58.605  36.320  76.654  0.00  0.00    +0.000 HD
ENDBRANCH   7  13
BRANCH   8  16
ATOM     15  O   UNL     1      57.470  30.786  79.019  0.00  0.00    +0.000 OA
ATOM     16  C   UNL     1      58.442  31.216  78.418  0.00  0.00    +0.000 C 
BRANCH  16  17
ATOM     17  O   UNL     1      59.738  30.840  78.562  0.00  0.00    +0.000 OA
ATOM     18  C   UNL     1      60.042  30.133  79.770  0.00  0.00    +0.000 C 
ENDBRANCH  16  17
ENDBRANCH   8  16
TORSDOF 4
ENDMDL
