MODEL        2
REMARK  Name = 10466307
REMARK  6 active torsions:
REMARK  status: ('A' for Active; 'I' for Inactive)
REMARK    1  A    between atoms: O_2  and  C_9
REMARK    2  A    between atoms: O_3  and  C_11
REMARK    3  A    between atoms: O_4  and  C_15
REMARK    4  A    between atoms: O_4  and  C_16
REMARK    5  A    between atoms: C_8  and  C_13
REMARK    6  A    between atoms: C_12  and  C_15
REMARK                            x       y       z     vdW  Elec       q    Type
REMARK                         _______ _______ _______ _____ _____    ______ ____
ROOT
ATOM      1  O   UNL     1      14.910  16.332  22.429  0.00  0.00    +0.000 OA
ATOM      2  C   UNL     1      15.468  17.825  20.527  0.00  0.00    +0.000 C 
ATOM      3  C   UNL     1      14.745  16.880  19.535  0.00  0.00    +0.000 C 
ATOM      4  C   UNL     1      14.442  18.947  20.775  0.00  0.00    +0.000 C 
ATOM      5  C   UNL     1      13.884  19.184  19.370  0.00  0.00    +0.000 C 
ATOM      6  C   UNL     1      13.719  17.776  18.798  0.00  0.00    +0.000 C 
ATOM      7  C   UNL     1      15.941  17.097  21.790  0.00  0.00    +0.000 C 
ATOM      8  C   UNL     1      14.087  15.734  20.248  0.00  0.00    +0.000 C 
ATOM      9  C   UNL     1      15.049  20.190  21.412  0.00  0.00    +0.000 C 
ATOM     10  C   UNL     1      14.174  15.556  21.572  0.00  0.00    +0.000 C 
ENDROOT
BRANCH   5  11
ATOM     11  O   UNL     1      14.809  19.917  18.573  0.00  0.00    +0.000 OA
ATOM     12  H   UNL     1      15.699  19.745  18.927  0.00  0.00    +0.000 HD
ENDBRANCH   5  11
BRANCH   7  13
ATOM     13  O   UNL     1      17.054  16.267  21.442  0.00  0.00    +0.000 OA
ATOM     14  H   UNL     1      17.118  16.210  20.475  0.00  0.00    +0.000 HD
ENDBRANCH   7  13
BRANCH   8  16
ATOM     15  O   UNL     1      12.492  13.998  20.003  0.00  0.00    +0.000 OA
ATOM     16  C   UNL     1      13.302  14.756  19.492  0.00  0.00    +0.000 C 
BRANCH  16  17
ATOM     17  O   UNL     1      13.632  14.855  18.179  0.00  0.00    +0.000 OA
ATOM     18  C   UNL     1      12.545  15.150  17.294  0.00  0.00    +0.000 C 
ENDBRANCH  16  17
ENDBRANCH   8  16
TORSDOF 4
ENDMDL
