MODEL        2
REMARK  Name = 10466307
REMARK  6 active torsions:
REMARK  status: ('A' for Active; 'I' for Inactive)
REMARK    1  A    between atoms: O_2  and  C_9
REMARK    2  A    between atoms: O_3  and  C_11
REMARK    3  A    between atoms: O_4  and  C_15
REMARK    4  A    between atoms: O_4  and  C_16
REMARK    5  A    between atoms: C_8  and  C_13
REMARK    6  A    between atoms: C_12  and  C_15
REMARK                            x       y       z     vdW  Elec       q    Type
REMARK                         _______ _______ _______ _____ _____    ______ ____
ROOT
ATOM      1  O   UNL     1      18.554  36.750  13.254  0.00  0.00    +0.000 OA
ATOM      2  C   UNL     1      19.803  35.530  11.490  0.00  0.00    +0.000 C 
ATOM      3  C   UNL     1      21.094  35.553  12.347  0.00  0.00    +0.000 C 
ATOM      4  C   UNL     1      19.243  34.114  11.714  0.00  0.00    +0.000 C 
ATOM      5  C   UNL     1      20.510  33.258  11.664  0.00  0.00    +0.000 C 
ATOM      6  C   UNL     1      21.534  34.073  12.454  0.00  0.00    +0.000 C 
ATOM      7  C   UNL     1      18.840  36.667  11.851  0.00  0.00    +0.000 C 
ATOM      8  C   UNL     1      20.847  36.171  13.694  0.00  0.00    +0.000 C 
ATOM      9  C   UNL     1      18.190  33.712  10.689  0.00  0.00    +0.000 C 
ATOM     10  C   UNL     1      19.661  36.670  14.058  0.00  0.00    +0.000 C 
ENDROOT
BRANCH   5  11
ATOM     11  O   UNL     1      20.962  33.096  10.323  0.00  0.00    +0.000 OA
ATOM     12  H   UNL     1      20.460  32.359   9.934  0.00  0.00    +0.000 HD
ENDBRANCH   5  11
BRANCH   7  13
ATOM     13  O   UNL     1      19.392  37.896  11.368  0.00  0.00    +0.000 OA
ATOM     14  H   UNL     1      18.731  38.601  11.463  0.00  0.00    +0.000 HD
ENDBRANCH   7  13
BRANCH   8  16
ATOM     15  O   UNL     1      22.110  35.391  15.542  0.00  0.00    +0.000 OA
ATOM     16  C   UNL     1      21.930  36.235  14.677  0.00  0.00    +0.000 C 
BRANCH  16  17
ATOM     17  O   UNL     1      22.659  37.357  14.449  0.00  0.00    +0.000 OA
ATOM     18  C   UNL     1      23.858  37.166  13.690  0.00  0.00    +0.000 C 
ENDBRANCH  16  17
ENDBRANCH   8  16
TORSDOF 4
ENDMDL
