MODEL        2
REMARK  Name = 10466307
REMARK  6 active torsions:
REMARK  status: ('A' for Active; 'I' for Inactive)
REMARK    1  A    between atoms: O_2  and  C_9
REMARK    2  A    between atoms: O_3  and  C_11
REMARK    3  A    between atoms: O_4  and  C_15
REMARK    4  A    between atoms: O_4  and  C_16
REMARK    5  A    between atoms: C_8  and  C_13
REMARK    6  A    between atoms: C_12  and  C_15
REMARK                            x       y       z     vdW  Elec       q    Type
REMARK                         _______ _______ _______ _____ _____    ______ ____
ROOT
ATOM      1  O   UNL     1      16.286  16.750   0.091  0.00  0.00    +0.000 OA
ATOM      2  C   UNL     1      18.403  18.035   0.245  0.00  0.00    +0.000 C 
ATOM      3  C   UNL     1      19.236  16.733   0.134  0.00  0.00    +0.000 C 
ATOM      4  C   UNL     1      18.450  18.620  -1.178  0.00  0.00    +0.000 C 
ATOM      5  C   UNL     1      19.909  18.378  -1.574  0.00  0.00    +0.000 C 
ATOM      6  C   UNL     1      20.201  16.971  -1.052  0.00  0.00    +0.000 C 
ATOM      7  C   UNL     1      16.992  17.783   0.789  0.00  0.00    +0.000 C 
ATOM      8  C   UNL     1      18.356  15.535  -0.082  0.00  0.00    +0.000 C 
ATOM      9  C   UNL     1      18.031  20.083  -1.245  0.00  0.00    +0.000 C 
ATOM     10  C   UNL     1      17.021  15.612  -0.122  0.00  0.00    +0.000 C 
ENDROOT
BRANCH   5  11
ATOM     11  O   UNL     1      20.770  19.313  -0.934  0.00  0.00    +0.000 OA
ATOM     12  H   UNL     1      20.877  20.070  -1.535  0.00  0.00    +0.000 HD
ENDBRANCH   5  11
BRANCH   7  13
ATOM     13  O   UNL     1      17.095  17.480   2.185  0.00  0.00    +0.000 OA
ATOM     14  H   UNL     1      18.017  17.590   2.467  0.00  0.00    +0.000 HD
ENDBRANCH   7  13
BRANCH   8  16
ATOM     15  O   UNL     1      19.129  13.414   0.638  0.00  0.00    +0.000 OA
ATOM     16  C   UNL     1      18.956  14.213  -0.269  0.00  0.00    +0.000 C 
BRANCH  16  17
ATOM     17  O   UNL     1      19.262  14.056  -1.582  0.00  0.00    +0.000 OA
ATOM     18  C   UNL     1      20.541  13.467  -1.847  0.00  0.00    +0.000 C 
ENDBRANCH  16  17
ENDBRANCH   8  16
TORSDOF 4
ENDMDL
