MODEL        2
REMARK  Name = 10466307
REMARK  6 active torsions:
REMARK  status: ('A' for Active; 'I' for Inactive)
REMARK    1  A    between atoms: O_2  and  C_9
REMARK    2  A    between atoms: O_3  and  C_11
REMARK    3  A    between atoms: O_4  and  C_15
REMARK    4  A    between atoms: O_4  and  C_16
REMARK    5  A    between atoms: C_8  and  C_13
REMARK    6  A    between atoms: C_12  and  C_15
REMARK                            x       y       z     vdW  Elec       q    Type
REMARK                         _______ _______ _______ _____ _____    ______ ____
ROOT
ATOM      1  O   UNL     1      -0.741  53.326 -23.596  0.00  0.00    +0.000 OA
ATOM      2  C   UNL     1      -1.779  54.840 -25.265  0.00  0.00    +0.000 C 
ATOM      3  C   UNL     1      -1.558  56.062 -24.339  0.00  0.00    +0.000 C 
ATOM      4  C   UNL     1      -0.623  54.936 -26.277  0.00  0.00    +0.000 C 
ATOM      5  C   UNL     1      -0.578  56.437 -26.570  0.00  0.00    +0.000 C 
ATOM      6  C   UNL     1      -0.773  57.084 -25.198  0.00  0.00    +0.000 C 
ATOM      7  C   UNL     1      -1.846  53.521 -24.488  0.00  0.00    +0.000 C 
ATOM      8  C   UNL     1      -0.812  55.679 -23.092  0.00  0.00    +0.000 C 
ATOM      9  C   UNL     1      -0.831  54.075 -27.516  0.00  0.00    +0.000 C 
ATOM     10  C   UNL     1      -0.441  54.421 -22.827  0.00  0.00    +0.000 C 
ENDROOT
BRANCH   5  11
ATOM     11  O   UNL     1      -1.645  56.818 -27.433  0.00  0.00    +0.000 OA
ATOM     12  H   UNL     1      -2.478  56.588 -26.985  0.00  0.00    +0.000 HD
ENDBRANCH   5  11
BRANCH   7  13
ATOM     13  O   UNL     1      -3.089  53.476 -23.780  0.00  0.00    +0.000 OA
ATOM     14  H   UNL     1      -3.069  52.741 -23.147  0.00  0.00    +0.000 HD
ENDBRANCH   7  13
BRANCH   8  16
ATOM     15  O   UNL     1      -0.431  57.900 -22.360  0.00  0.00    +0.000 OA
ATOM     16  C   UNL     1      -0.452  56.704 -22.112  0.00  0.00    +0.000 C 
BRANCH  16  17
ATOM     17  O   UNL     1      -0.163  56.097 -20.933  0.00  0.00    +0.000 OA
ATOM     18  C   UNL     1      -1.183  56.184 -19.931  0.00  0.00    +0.000 C 
ENDBRANCH  16  17
ENDBRANCH   8  16
TORSDOF 4
ENDMDL
