MODEL        2
REMARK  Name = 10466307
REMARK  6 active torsions:
REMARK  status: ('A' for Active; 'I' for Inactive)
REMARK    1  A    between atoms: O_2  and  C_9
REMARK    2  A    between atoms: O_3  and  C_11
REMARK    3  A    between atoms: O_4  and  C_15
REMARK    4  A    between atoms: O_4  and  C_16
REMARK    5  A    between atoms: C_8  and  C_13
REMARK    6  A    between atoms: C_12  and  C_15
REMARK                            x       y       z     vdW  Elec       q    Type
REMARK                         _______ _______ _______ _____ _____    ______ ____
ROOT
ATOM      1  O   UNL     1      28.589   7.693  57.103  0.00  0.00    +0.000 OA
ATOM      2  C   UNL     1      27.543   6.058  58.649  0.00  0.00    +0.000 C 
ATOM      3  C   UNL     1      28.062   4.874  57.795  0.00  0.00    +0.000 C 
ATOM      4  C   UNL     1      28.545   6.133  59.815  0.00  0.00    +0.000 C 
ATOM      5  C   UNL     1      28.755   4.654  60.151  0.00  0.00    +0.000 C 
ATOM      6  C   UNL     1      28.850   3.978  58.782  0.00  0.00    +0.000 C 
ATOM      7  C   UNL     1      27.405   7.350  57.836  0.00  0.00    +0.000 C 
ATOM      8  C   UNL     1      28.917   5.351  56.656  0.00  0.00    +0.000 C 
ATOM      9  C   UNL     1      28.044   6.963  60.991  0.00  0.00    +0.000 C 
ATOM     10  C   UNL     1      29.144   6.647  56.413  0.00  0.00    +0.000 C 
ENDROOT
BRANCH   5  11
ATOM     11  O   UNL     1      27.640   4.132  60.865  0.00  0.00    +0.000 OA
ATOM     12  H   UNL     1      27.925   3.300  61.283  0.00  0.00    +0.000 HD
ENDBRANCH   5  11
BRANCH   7  13
ATOM     13  O   UNL     1      26.282   7.214  56.960  0.00  0.00    +0.000 OA
ATOM     14  H   UNL     1      26.556   7.432  56.055  0.00  0.00    +0.000 HD
ENDBRANCH   7  13
BRANCH   8  16
ATOM     15  O   UNL     1      29.909   3.268  56.117  0.00  0.00    +0.000 OA
ATOM     16  C   UNL     1      29.552   4.381  55.763  0.00  0.00    +0.000 C 
BRANCH  16  17
ATOM     17  O   UNL     1      29.659   4.932  54.527  0.00  0.00    +0.000 OA
ATOM     18  C   UNL     1      28.882   4.299  53.504  0.00  0.00    +0.000 C 
ENDBRANCH  16  17
ENDBRANCH   8  16
TORSDOF 4
ENDMDL
