MODEL        2
REMARK  Name = 10466307
REMARK  6 active torsions:
REMARK  status: ('A' for Active; 'I' for Inactive)
REMARK    1  A    between atoms: O_2  and  C_9
REMARK    2  A    between atoms: O_3  and  C_11
REMARK    3  A    between atoms: O_4  and  C_15
REMARK    4  A    between atoms: O_4  and  C_16
REMARK    5  A    between atoms: C_8  and  C_13
REMARK    6  A    between atoms: C_12  and  C_15
REMARK                            x       y       z     vdW  Elec       q    Type
REMARK                         _______ _______ _______ _____ _____    ______ ____
ROOT
ATOM      1  O   UNL     1      22.815   1.831   5.541  0.00  0.00    +0.000 OA
ATOM      2  C   UNL     1      22.891  -0.447   4.559  0.00  0.00    +0.000 C 
ATOM      3  C   UNL     1      24.330  -0.661   5.091  0.00  0.00    +0.000 C 
ATOM      4  C   UNL     1      22.011  -1.194   5.579  0.00  0.00    +0.000 C 
ATOM      5  C   UNL     1      22.823  -2.467   5.829  0.00  0.00    +0.000 C 
ATOM      6  C   UNL     1      24.267  -1.970   5.916  0.00  0.00    +0.000 C 
ATOM      7  C   UNL     1      22.547   1.036   4.379  0.00  0.00    +0.000 C 
ATOM      8  C   UNL     1      24.790   0.508   5.916  0.00  0.00    +0.000 C 
ATOM      9  C   UNL     1      20.596  -1.457   5.080  0.00  0.00    +0.000 C 
ATOM     10  C   UNL     1      24.041   1.600   6.108  0.00  0.00    +0.000 C 
ENDROOT
BRANCH   5  11
ATOM     11  O   UNL     1      22.696  -3.373   4.738  0.00  0.00    +0.000 OA
ATOM     12  H   UNL     1      23.176  -2.989   3.984  0.00  0.00    +0.000 HD
ENDBRANCH   5  11
BRANCH   7  13
ATOM     13  O   UNL     1      23.265   1.530   3.244  0.00  0.00    +0.000 OA
ATOM     14  H   UNL     1      24.109   1.908   3.541  0.00  0.00    +0.000 HD
ENDBRANCH   7  13
BRANCH   8  16
ATOM     15  O   UNL     1      26.274   0.229   7.741  0.00  0.00    +0.000 OA
ATOM     16  C   UNL     1      26.105   0.476   6.558  0.00  0.00    +0.000 C 
BRANCH  16  17
ATOM     17  O   UNL     1      27.051   0.759   5.626  0.00  0.00    +0.000 OA
ATOM     18  C   UNL     1      28.150  -0.158   5.570  0.00  0.00    +0.000 C 
ENDBRANCH  16  17
ENDBRANCH   8  16
TORSDOF 4
ENDMDL
