MODEL        2
REMARK  Name = 10466307
REMARK  6 active torsions:
REMARK  status: ('A' for Active; 'I' for Inactive)
REMARK    1  A    between atoms: O_2  and  C_9
REMARK    2  A    between atoms: O_3  and  C_11
REMARK    3  A    between atoms: O_4  and  C_15
REMARK    4  A    between atoms: O_4  and  C_16
REMARK    5  A    between atoms: C_8  and  C_13
REMARK    6  A    between atoms: C_12  and  C_15
REMARK                            x       y       z     vdW  Elec       q    Type
REMARK                         _______ _______ _______ _____ _____    ______ ____
ROOT
ATOM      1  O   UNL     1       8.069   6.162  94.038  0.00  0.00    +0.000 OA
ATOM      2  C   UNL     1       9.689   8.014  93.711  0.00  0.00    +0.000 C 
ATOM      3  C   UNL     1       8.753   9.003  94.450  0.00  0.00    +0.000 C 
ATOM      4  C   UNL     1      10.731   7.632  94.779  0.00  0.00    +0.000 C 
ATOM      5  C   UNL     1      11.004   8.979  95.453  0.00  0.00    +0.000 C 
ATOM      6  C   UNL     1       9.619   9.614  95.578  0.00  0.00    +0.000 C 
ATOM      7  C   UNL     1       8.928   6.830  93.104  0.00  0.00    +0.000 C 
ATOM      8  C   UNL     1       7.532   8.308  94.985  0.00  0.00    +0.000 C 
ATOM      9  C   UNL     1      11.976   6.972  94.200  0.00  0.00    +0.000 C 
ATOM     10  C   UNL     1       7.294   7.006  94.789  0.00  0.00    +0.000 C 
ENDROOT
BRANCH   5  11
ATOM     11  O   UNL     1      11.832   9.798  94.634  0.00  0.00    +0.000 OA
ATOM     12  H   UNL     1      11.527  10.716  94.738  0.00  0.00    +0.000 HD
ENDBRANCH   5  11
BRANCH   7  13
ATOM     13  O   UNL     1       8.188   7.302  91.973  0.00  0.00    +0.000 OA
ATOM     14  H   UNL     1       8.327   8.257  91.878  0.00  0.00    +0.000 HD
ENDBRANCH   7  13
BRANCH   8  16
ATOM     15  O   UNL     1       6.523  10.278  95.829  0.00  0.00    +0.000 OA
ATOM     16  C   UNL     1       6.548   9.059  95.766  0.00  0.00    +0.000 C 
BRANCH  16  17
ATOM     17  O   UNL     1       5.711   8.180  96.372  0.00  0.00    +0.000 OA
ATOM     18  C   UNL     1       4.497   8.741  96.885  0.00  0.00    +0.000 C 
ENDBRANCH  16  17
ENDBRANCH   8  16
TORSDOF 4
ENDMDL
