MODEL        2
REMARK  Name = 10466307
REMARK  6 active torsions:
REMARK  status: ('A' for Active; 'I' for Inactive)
REMARK    1  A    between atoms: O_2  and  C_9
REMARK    2  A    between atoms: O_3  and  C_11
REMARK    3  A    between atoms: O_4  and  C_15
REMARK    4  A    between atoms: O_4  and  C_16
REMARK    5  A    between atoms: C_8  and  C_13
REMARK    6  A    between atoms: C_12  and  C_15
REMARK                            x       y       z     vdW  Elec       q    Type
REMARK                         _______ _______ _______ _____ _____    ______ ____
ROOT
ATOM      1  O   UNL     1     -11.237 -16.419   7.670  0.00  0.00    +0.000 OA
ATOM      2  C   UNL     1     -10.075 -18.418   6.768  0.00  0.00    +0.000 C 
ATOM      3  C   UNL     1     -10.161 -19.125   8.144  0.00  0.00    +0.000 C 
ATOM      4  C   UNL     1     -11.231 -19.044   5.966  0.00  0.00    +0.000 C 
ATOM      5  C   UNL     1     -11.129 -20.520   6.358  0.00  0.00    +0.000 C 
ATOM      6  C   UNL     1     -10.850 -20.482   7.861  0.00  0.00    +0.000 C 
ATOM      7  C   UNL     1     -10.131 -16.891   6.890  0.00  0.00    +0.000 C 
ATOM      8  C   UNL     1     -10.923 -18.298   9.140  0.00  0.00    +0.000 C 
ATOM      9  C   UNL     1     -11.127 -18.799   4.466  0.00  0.00    +0.000 C 
ATOM     10  C   UNL     1     -11.414 -17.087   8.854  0.00  0.00    +0.000 C 
ENDROOT
BRANCH   5  11
ATOM     11  O   UNL     1     -10.042 -21.149   5.687  0.00  0.00    +0.000 OA
ATOM     12  H   UNL     1      -9.615 -20.476   5.129  0.00  0.00    +0.000 HD
ENDBRANCH   5  11
BRANCH   7  13
ATOM     13  O   UNL     1      -8.888 -16.437   7.436  0.00  0.00    +0.000 OA
ATOM     14  H   UNL     1      -8.799 -16.770   8.344  0.00  0.00    +0.000 HD
ENDBRANCH   7  13
BRANCH   8  16
ATOM     15  O   UNL     1     -10.755 -18.277  11.504  0.00  0.00    +0.000 OA
ATOM     16  C   UNL     1     -11.165 -18.817  10.488  0.00  0.00    +0.000 C 
BRANCH  16  17
ATOM     17  O   UNL     1     -11.898 -19.955  10.391  0.00  0.00    +0.000 OA
ATOM     18  C   UNL     1     -11.493 -21.020  11.259  0.00  0.00    +0.000 C 
ENDBRANCH  16  17
ENDBRANCH   8  16
TORSDOF 4
ENDMDL
