MODEL        2
REMARK  Name = 10466307
REMARK  6 active torsions:
REMARK  status: ('A' for Active; 'I' for Inactive)
REMARK    1  A    between atoms: O_2  and  C_9
REMARK    2  A    between atoms: O_3  and  C_11
REMARK    3  A    between atoms: O_4  and  C_15
REMARK    4  A    between atoms: O_4  and  C_16
REMARK    5  A    between atoms: C_8  and  C_13
REMARK    6  A    between atoms: C_12  and  C_15
REMARK                            x       y       z     vdW  Elec       q    Type
REMARK                         _______ _______ _______ _____ _____    ______ ____
ROOT
ATOM      1  O   UNL     1      31.174  84.509  27.452  0.00  0.00    +0.000 OA
ATOM      2  C   UNL     1      29.619  84.353  25.525  0.00  0.00    +0.000 C 
ATOM      3  C   UNL     1      29.316  82.869  25.850  0.00  0.00    +0.000 C 
ATOM      4  C   UNL     1      28.411  85.108  26.110  0.00  0.00    +0.000 C 
ATOM      5  C   UNL     1      27.245  84.199  25.716  0.00  0.00    +0.000 C 
ATOM      6  C   UNL     1      27.775  82.788  25.976  0.00  0.00    +0.000 C 
ATOM      7  C   UNL     1      30.981  84.805  26.063  0.00  0.00    +0.000 C 
ATOM      8  C   UNL     1      30.012  82.430  27.107  0.00  0.00    +0.000 C 
ATOM      9  C   UNL     1      28.280  86.534  25.591  0.00  0.00    +0.000 C 
ATOM     10  C   UNL     1      30.820  83.233  27.808  0.00  0.00    +0.000 C 
ENDROOT
BRANCH   5  11
ATOM     11  O   UNL     1      26.934  84.343  24.334  0.00  0.00    +0.000 OA
ATOM     12  H   UNL     1      26.940  83.453  23.939  0.00  0.00    +0.000 HD
ENDBRANCH   5  11
BRANCH   7  13
ATOM     13  O   UNL     1      32.004  84.202  25.264  0.00  0.00    +0.000 OA
ATOM     14  H   UNL     1      31.697  83.334  24.956  0.00  0.00    +0.000 HD
ENDBRANCH   7  13
BRANCH   8  16
ATOM     15  O   UNL     1      30.232  80.071  27.065  0.00  0.00    +0.000 OA
ATOM     16  C   UNL     1      29.808  81.073  27.619  0.00  0.00    +0.000 C 
BRANCH  16  17
ATOM     17  O   UNL     1      29.095  81.145  28.772  0.00  0.00    +0.000 OA
ATOM     18  C   UNL     1      29.874  81.208  29.972  0.00  0.00    +0.000 C 
ENDBRANCH  16  17
ENDBRANCH   8  16
TORSDOF 4
ENDMDL
