MODEL        2
REMARK  Name = 10466307
REMARK  6 active torsions:
REMARK  status: ('A' for Active; 'I' for Inactive)
REMARK    1  A    between atoms: O_2  and  C_9
REMARK    2  A    between atoms: O_3  and  C_11
REMARK    3  A    between atoms: O_4  and  C_15
REMARK    4  A    between atoms: O_4  and  C_16
REMARK    5  A    between atoms: C_8  and  C_13
REMARK    6  A    between atoms: C_12  and  C_15
REMARK                            x       y       z     vdW  Elec       q    Type
REMARK                         _______ _______ _______ _____ _____    ______ ____
ROOT
ATOM      1  O   UNL     1      13.375  39.728  69.482  0.00  0.00    +0.000 OA
ATOM      2  C   UNL     1      14.700  41.696  70.209  0.00  0.00    +0.000 C 
ATOM      3  C   UNL     1      14.317  42.467  68.921  0.00  0.00    +0.000 C 
ATOM      4  C   UNL     1      13.745  42.268  71.273  0.00  0.00    +0.000 C 
ATOM      5  C   UNL     1      13.756  43.762  70.942  0.00  0.00    +0.000 C 
ATOM      6  C   UNL     1      13.702  43.800  69.414  0.00  0.00    +0.000 C 
ATOM      7  C   UNL     1      14.623  40.176  70.026  0.00  0.00    +0.000 C 
ATOM      8  C   UNL     1      13.358  41.679  68.074  0.00  0.00    +0.000 C 
ATOM      9  C   UNL     1      14.172  41.952  72.701  0.00  0.00    +0.000 C 
ATOM     10  C   UNL     1      12.944  40.450  68.399  0.00  0.00    +0.000 C 
ENDROOT
BRANCH   5  11
ATOM     11  O   UNL     1      14.961  44.373  71.391  0.00  0.00    +0.000 OA
ATOM     12  H   UNL     1      15.126  45.146  70.823  0.00  0.00    +0.000 HD
ENDBRANCH   5  11
BRANCH   7  13
ATOM     13  O   UNL     1      15.719  39.765  69.202  0.00  0.00    +0.000 OA
ATOM     14  H   UNL     1      16.552  40.019  69.631  0.00  0.00    +0.000 HD
ENDBRANCH   7  13
BRANCH   8  16
ATOM     15  O   UNL     1      13.392  43.142  66.210  0.00  0.00    +0.000 OA
ATOM     16  C   UNL     1      12.829  42.259  66.838  0.00  0.00    +0.000 C 
BRANCH  16  17
ATOM     17  O   UNL     1      11.652  41.652  66.542  0.00  0.00    +0.000 OA
ATOM     18  C   UNL     1      10.520  42.109  67.291  0.00  0.00    +0.000 C 
ENDBRANCH  16  17
ENDBRANCH   8  16
TORSDOF 4
ENDMDL
