MODEL        2
REMARK  Name = 10466307
REMARK  6 active torsions:
REMARK  status: ('A' for Active; 'I' for Inactive)
REMARK    1  A    between atoms: O_2  and  C_9
REMARK    2  A    between atoms: O_3  and  C_11
REMARK    3  A    between atoms: O_4  and  C_15
REMARK    4  A    between atoms: O_4  and  C_16
REMARK    5  A    between atoms: C_8  and  C_13
REMARK    6  A    between atoms: C_12  and  C_15
REMARK                            x       y       z     vdW  Elec       q    Type
REMARK                         _______ _______ _______ _____ _____    ______ ____
ROOT
ATOM      1  O   UNL     1      10.373  -3.329  16.629  0.00  0.00    +0.000 OA
ATOM      2  C   UNL     1      10.899  -1.124  17.638  0.00  0.00    +0.000 C 
ATOM      3  C   UNL     1      12.352  -1.572  17.935  0.00  0.00    +0.000 C 
ATOM      4  C   UNL     1      11.032  -0.282  16.356  0.00  0.00    +0.000 C 
ATOM      5  C   UNL     1      12.306   0.520  16.632  0.00  0.00    +0.000 C 
ATOM      6  C   UNL     1      13.250  -0.500  17.271  0.00  0.00    +0.000 C 
ATOM      7  C   UNL     1       9.930  -2.307  17.532  0.00  0.00    +0.000 C 
ATOM      8  C   UNL     1      12.621  -2.949  17.398  0.00  0.00    +0.000 C 
ATOM      9  C   UNL     1       9.812   0.585  16.072  0.00  0.00    +0.000 C 
ATOM     10  C   UNL     1      11.687  -3.686  16.786  0.00  0.00    +0.000 C 
ENDROOT
BRANCH   5  11
ATOM     11  O   UNL     1      12.053   1.576  17.552  0.00  0.00    +0.000 OA
ATOM     12  H   UNL     1      12.892   2.049  17.692  0.00  0.00    +0.000 HD
ENDBRANCH   5  11
BRANCH   7  13
ATOM     13  O   UNL     1       9.722  -2.839  18.845  0.00  0.00    +0.000 OA
ATOM     14  H   UNL     1       9.113  -3.592  18.790  0.00  0.00    +0.000 HD
ENDBRANCH   7  13
BRANCH   8  16
ATOM     15  O   UNL     1      14.689  -3.346  18.485  0.00  0.00    +0.000 OA
ATOM     16  C   UNL     1      13.957  -3.534  17.526  0.00  0.00    +0.000 C 
BRANCH  16  17
ATOM     17  O   UNL     1      14.208  -4.290  16.427  0.00  0.00    +0.000 OA
ATOM     18  C   UNL     1      14.808  -3.594  15.328  0.00  0.00    +0.000 C 
ENDBRANCH  16  17
ENDBRANCH   8  16
TORSDOF 4
ENDMDL
