MODEL        2
REMARK  Name = 10466307
REMARK  6 active torsions:
REMARK  status: ('A' for Active; 'I' for Inactive)
REMARK    1  A    between atoms: O_2  and  C_9
REMARK    2  A    between atoms: O_3  and  C_11
REMARK    3  A    between atoms: O_4  and  C_15
REMARK    4  A    between atoms: O_4  and  C_16
REMARK    5  A    between atoms: C_8  and  C_13
REMARK    6  A    between atoms: C_12  and  C_15
REMARK                            x       y       z     vdW  Elec       q    Type
REMARK                         _______ _______ _______ _____ _____    ______ ____
ROOT
ATOM      1  O   UNL     1       0.577  12.171  18.789  0.00  0.00    +0.000 OA
ATOM      2  C   UNL     1       2.834  13.201  18.729  0.00  0.00    +0.000 C 
ATOM      3  C   UNL     1       2.245  14.586  19.098  0.00  0.00    +0.000 C 
ATOM      4  C   UNL     1       3.391  12.674  20.064  0.00  0.00    +0.000 C 
ATOM      5  C   UNL     1       4.038  13.928  20.657  0.00  0.00    +0.000 C 
ATOM      6  C   UNL     1       3.032  15.039  20.352  0.00  0.00    +0.000 C 
ATOM      7  C   UNL     1       1.804  12.287  18.057  0.00  0.00    +0.000 C 
ATOM      8  C   UNL     1       0.767  14.503  19.355  0.00  0.00    +0.000 C 
ATOM      9  C   UNL     1       4.355  11.506  19.899  0.00  0.00    +0.000 C 
ATOM     10  C   UNL     1       0.071  13.368  19.227  0.00  0.00    +0.000 C 
ENDROOT
BRANCH   5  11
ATOM     11  O   UNL     1       5.274  14.215  20.012  0.00  0.00    +0.000 OA
ATOM     12  H   UNL     1       5.586  15.074  20.348  0.00  0.00    +0.000 HD
ENDBRANCH   5  11
BRANCH   7  13
ATOM     13  O   UNL     1       1.566  12.773  16.732  0.00  0.00    +0.000 OA
ATOM     14  H   UNL     1       2.209  13.471  16.529  0.00  0.00    +0.000 HD
ENDBRANCH   7  13
BRANCH   8  16
ATOM     15  O   UNL     1      -0.777  16.276  19.066  0.00  0.00    +0.000 OA
ATOM     16  C   UNL     1       0.031  15.696  19.774  0.00  0.00    +0.000 C 
BRANCH  16  17
ATOM     17  O   UNL     1       0.402  16.014  21.041  0.00  0.00    +0.000 OA
ATOM     18  C   UNL     1      -0.648  16.500  21.884  0.00  0.00    +0.000 C 
ENDBRANCH  16  17
ENDBRANCH   8  16
TORSDOF 4
ENDMDL
