MODEL        2
REMARK  Name = 10466307
REMARK  6 active torsions:
REMARK  status: ('A' for Active; 'I' for Inactive)
REMARK    1  A    between atoms: O_2  and  C_9
REMARK    2  A    between atoms: O_3  and  C_11
REMARK    3  A    between atoms: O_4  and  C_15
REMARK    4  A    between atoms: O_4  and  C_16
REMARK    5  A    between atoms: C_8  and  C_13
REMARK    6  A    between atoms: C_12  and  C_15
REMARK                            x       y       z     vdW  Elec       q    Type
REMARK                         _______ _______ _______ _____ _____    ______ ____
ROOT
ATOM      1  O   UNL     1     -40.807  32.671   6.950  0.00  0.00    +0.000 OA
ATOM      2  C   UNL     1     -40.700  32.123   4.532  0.00  0.00    +0.000 C 
ATOM      3  C   UNL     1     -39.635  31.030   4.796  0.00  0.00    +0.000 C 
ATOM      4  C   UNL     1     -42.012  31.329   4.392  0.00  0.00    +0.000 C 
ATOM      5  C   UNL     1     -41.567  30.122   3.562  0.00  0.00    +0.000 C 
ATOM      6  C   UNL     1     -40.215  29.740   4.167  0.00  0.00    +0.000 C 
ATOM      7  C   UNL     1     -40.716  33.202   5.621  0.00  0.00    +0.000 C 
ATOM      8  C   UNL     1     -39.364  30.872   6.265  0.00  0.00    +0.000 C 
ATOM      9  C   UNL     1     -43.140  32.130   3.755  0.00  0.00    +0.000 C 
ATOM     10  C   UNL     1     -39.952  31.629   7.198  0.00  0.00    +0.000 C 
ENDROOT
BRANCH   5  11
ATOM     11  O   UNL     1     -41.392  30.483   2.196  0.00  0.00    +0.000 OA
ATOM     12  H   UNL     1     -41.034  29.705   1.733  0.00  0.00    +0.000 HD
ENDBRANCH   5  11
BRANCH   7  13
ATOM     13  O   UNL     1     -39.544  34.010   5.472  0.00  0.00    +0.000 OA
ATOM     14  H   UNL     1     -39.535  34.689   6.166  0.00  0.00    +0.000 HD
ENDBRANCH   7  13
BRANCH   8  16
ATOM     15  O   UNL     1     -37.710  29.978   7.709  0.00  0.00    +0.000 OA
ATOM     16  C   UNL     1     -38.427  29.846   6.729  0.00  0.00    +0.000 C 
BRANCH  16  17
ATOM     17  O   UNL     1     -38.509  28.775   5.899  0.00  0.00    +0.000 OA
ATOM     18  C   UNL     1     -38.816  27.529   6.535  0.00  0.00    +0.000 C 
ENDBRANCH  16  17
ENDBRANCH   8  16
TORSDOF 4
ENDMDL
