MODEL        2
REMARK  Name = 10466307
REMARK  6 active torsions:
REMARK  status: ('A' for Active; 'I' for Inactive)
REMARK    1  A    between atoms: O_2  and  C_9
REMARK    2  A    between atoms: O_3  and  C_11
REMARK    3  A    between atoms: O_4  and  C_15
REMARK    4  A    between atoms: O_4  and  C_16
REMARK    5  A    between atoms: C_8  and  C_13
REMARK    6  A    between atoms: C_12  and  C_15
REMARK                            x       y       z     vdW  Elec       q    Type
REMARK                         _______ _______ _______ _____ _____    ______ ____
ROOT
ATOM      1  O   UNL     1     -11.428  -6.804 -24.870  0.00  0.00    +0.000 OA
ATOM      2  C   UNL     1     -11.172  -6.167 -22.485  0.00  0.00    +0.000 C 
ATOM      3  C   UNL     1      -9.664  -5.877 -22.693  0.00  0.00    +0.000 C 
ATOM      4  C   UNL     1     -11.820  -4.771 -22.524  0.00  0.00    +0.000 C 
ATOM      5  C   UNL     1     -10.825  -3.935 -21.715  0.00  0.00    +0.000 C 
ATOM      6  C   UNL     1      -9.458  -4.426 -22.195  0.00  0.00    +0.000 C 
ATOM      7  C   UNL     1     -11.725  -7.160 -23.514  0.00  0.00    +0.000 C 
ATOM      8  C   UNL     1      -9.267  -6.044 -24.133  0.00  0.00    +0.000 C 
ATOM      9  C   UNL     1     -13.237  -4.746 -21.966  0.00  0.00    +0.000 C 
ATOM     10  C   UNL     1     -10.123  -6.439 -25.081  0.00  0.00    +0.000 C 
ENDROOT
BRANCH   5  11
ATOM     11  O   UNL     1     -10.961  -4.192 -20.321  0.00  0.00    +0.000 OA
ATOM     12  H   UNL     1     -10.817  -5.145 -20.185  0.00  0.00    +0.000 HD
ENDBRANCH   5  11
BRANCH   7  13
ATOM     13  O   UNL     1     -11.217  -8.461 -23.202  0.00  0.00    +0.000 OA
ATOM     14  H   UNL     1     -10.248  -8.447 -23.262  0.00  0.00    +0.000 HD
ENDBRANCH   7  13
BRANCH   8  16
ATOM     15  O   UNL     1      -7.452  -4.632 -24.704  0.00  0.00    +0.000 OA
ATOM     16  C   UNL     1      -7.892  -5.761 -24.548  0.00  0.00    +0.000 C 
BRANCH  16  17
ATOM     17  O   UNL     1      -7.236  -6.937 -24.714  0.00  0.00    +0.000 OA
ATOM     18  C   UNL     1      -6.286  -6.964 -25.786  0.00  0.00    +0.000 C 
ENDBRANCH  16  17
ENDBRANCH   8  16
TORSDOF 4
ENDMDL
