MODEL        2
REMARK  Name = 10466307
REMARK  6 active torsions:
REMARK  status: ('A' for Active; 'I' for Inactive)
REMARK    1  A    between atoms: O_2  and  C_9
REMARK    2  A    between atoms: O_3  and  C_11
REMARK    3  A    between atoms: O_4  and  C_15
REMARK    4  A    between atoms: O_4  and  C_16
REMARK    5  A    between atoms: C_8  and  C_13
REMARK    6  A    between atoms: C_12  and  C_15
REMARK                            x       y       z     vdW  Elec       q    Type
REMARK                         _______ _______ _______ _____ _____    ______ ____
ROOT
ATOM      1  O   UNL     1      33.597 -12.058  -8.015  0.00  0.00    +0.000 OA
ATOM      2  C   UNL     1      35.647 -12.019  -9.413  0.00  0.00    +0.000 C 
ATOM      3  C   UNL     1      36.536 -12.261  -8.169  0.00  0.00    +0.000 C 
ATOM      4  C   UNL     1      35.540 -13.411 -10.061  0.00  0.00    +0.000 C 
ATOM      5  C   UNL     1      36.970 -13.938  -9.922  0.00  0.00    +0.000 C 
ATOM      6  C   UNL     1      37.383 -13.511  -8.513  0.00  0.00    +0.000 C 
ATOM      7  C   UNL     1      34.304 -11.371  -9.057  0.00  0.00    +0.000 C 
ATOM      8  C   UNL     1      35.708 -12.460  -6.931  0.00  0.00    +0.000 C 
ATOM      9  C   UNL     1      35.038 -13.373 -11.499  0.00  0.00    +0.000 C 
ATOM     10  C   UNL     1      34.372 -12.385  -6.933  0.00  0.00    +0.000 C 
ENDROOT
BRANCH   5  11
ATOM     11  O   UNL     1      37.832 -13.328 -10.876  0.00  0.00    +0.000 OA
ATOM     12  H   UNL     1      38.115 -14.021 -11.498  0.00  0.00    +0.000 HD
ENDBRANCH   5  11
BRANCH   7  13
ATOM     13  O   UNL     1      34.542 -10.006  -8.700  0.00  0.00    +0.000 OA
ATOM     14  H   UNL     1      33.966  -9.433  -9.233  0.00  0.00    +0.000 HD
ENDBRANCH   7  13
BRANCH   8  16
ATOM     15  O   UNL     1      35.772 -13.208  -4.684  0.00  0.00    +0.000 OA
ATOM     16  C   UNL     1      36.360 -12.759  -5.656  0.00  0.00    +0.000 C 
BRANCH  16  17
ATOM     17  O   UNL     1      37.680 -12.459  -5.760  0.00  0.00    +0.000 OA
ATOM     18  C   UNL     1      38.084 -11.242  -5.124  0.00  0.00    +0.000 C 
ENDBRANCH  16  17
ENDBRANCH   8  16
TORSDOF 4
ENDMDL
