MODEL        2
REMARK  Name = 10466307
REMARK  6 active torsions:
REMARK  status: ('A' for Active; 'I' for Inactive)
REMARK    1  A    between atoms: O_2  and  C_9
REMARK    2  A    between atoms: O_3  and  C_11
REMARK    3  A    between atoms: O_4  and  C_15
REMARK    4  A    between atoms: O_4  and  C_16
REMARK    5  A    between atoms: C_8  and  C_13
REMARK    6  A    between atoms: C_12  and  C_15
REMARK                            x       y       z     vdW  Elec       q    Type
REMARK                         _______ _______ _______ _____ _____    ______ ____
ROOT
ATOM      1  O   UNL     1      14.524 121.793  21.020  0.00  0.00    +0.000 OA
ATOM      2  C   UNL     1      12.660 121.711  19.384  0.00  0.00    +0.000 C 
ATOM      3  C   UNL     1      13.591 122.215  18.253  0.00  0.00    +0.000 C 
ATOM      4  C   UNL     1      12.592 120.191  19.150  0.00  0.00    +0.000 C 
ATOM      5  C   UNL     1      12.476 120.107  17.627  0.00  0.00    +0.000 C 
ATOM      6  C   UNL     1      13.464 121.161  17.125  0.00  0.00    +0.000 C 
ATOM      7  C   UNL     1      13.151 122.126  20.776  0.00  0.00    +0.000 C 
ATOM      8  C   UNL     1      15.006 122.365  18.733  0.00  0.00    +0.000 C 
ATOM      9  C   UNL     1      11.445 119.516  19.891  0.00  0.00    +0.000 C 
ATOM     10  C   UNL     1      15.373 122.128  19.997  0.00  0.00    +0.000 C 
ENDROOT
BRANCH   5  11
ATOM     11  O   UNL     1      11.161 120.445  17.198  0.00  0.00    +0.000 OA
ATOM     12  H   UNL     1      10.892 121.243  17.685  0.00  0.00    +0.000 HD
ENDBRANCH   5  11
BRANCH   7  13
ATOM     13  O   UNL     1      12.929 123.532  20.931  0.00  0.00    +0.000 OA
ATOM     14  H   UNL     1      12.621 123.901  20.088  0.00  0.00    +0.000 HD
ENDBRANCH   7  13
BRANCH   8  16
ATOM     15  O   UNL     1      15.876 122.909  16.597  0.00  0.00    +0.000 OA
ATOM     16  C   UNL     1      16.055 122.777  17.798  0.00  0.00    +0.000 C 
BRANCH  16  17
ATOM     17  O   UNL     1      17.204 122.974  18.492  0.00  0.00    +0.000 OA
ATOM     18  C   UNL     1      17.414 124.309  18.965  0.00  0.00    +0.000 C 
ENDBRANCH  16  17
ENDBRANCH   8  16
TORSDOF 4
ENDMDL
