MODEL        2
REMARK  Name = 10466307
REMARK  6 active torsions:
REMARK  status: ('A' for Active; 'I' for Inactive)
REMARK    1  A    between atoms: O_2  and  C_9
REMARK    2  A    between atoms: O_3  and  C_11
REMARK    3  A    between atoms: O_4  and  C_15
REMARK    4  A    between atoms: O_4  and  C_16
REMARK    5  A    between atoms: C_8  and  C_13
REMARK    6  A    between atoms: C_12  and  C_15
REMARK                            x       y       z     vdW  Elec       q    Type
REMARK                         _______ _______ _______ _____ _____    ______ ____
ROOT
ATOM      1  O   UNL     1     -12.091  11.222 -42.292  0.00  0.00    +0.000 OA
ATOM      2  C   UNL     1     -13.246  13.232 -41.407  0.00  0.00    +0.000 C 
ATOM      3  C   UNL     1     -14.186  12.351 -40.547  0.00  0.00    +0.000 C 
ATOM      4  C   UNL     1     -12.182  13.717 -40.405  0.00  0.00    +0.000 C 
ATOM      5  C   UNL     1     -13.030  14.038 -39.171  0.00  0.00    +0.000 C 
ATOM      6  C   UNL     1     -14.029  12.882 -39.101  0.00  0.00    +0.000 C 
ATOM      7  C   UNL     1     -12.689  12.482 -42.623  0.00  0.00    +0.000 C 
ATOM      8  C   UNL     1     -13.828  10.896 -40.658  0.00  0.00    +0.000 C 
ATOM      9  C   UNL     1     -11.366  14.898 -40.913  0.00  0.00    +0.000 C 
ATOM     10  C   UNL     1     -12.844  10.448 -41.447  0.00  0.00    +0.000 C 
ENDROOT
BRANCH   5  11
ATOM     11  O   UNL     1     -13.731  15.265 -39.343  0.00  0.00    +0.000 OA
ATOM     12  H   UNL     1     -14.202  15.450 -38.511  0.00  0.00    +0.000 HD
ENDBRANCH   5  11
BRANCH   7  13
ATOM     13  O   UNL     1     -13.747  12.314 -43.572  0.00  0.00    +0.000 OA
ATOM     14  H   UNL     1     -14.535  12.785 -43.257  0.00  0.00    +0.000 HD
ENDBRANCH   7  13
BRANCH   8  16
ATOM     15  O   UNL     1     -15.621   9.407 -40.232  0.00  0.00    +0.000 OA
ATOM     16  C   UNL     1     -14.563   9.901 -39.875  0.00  0.00    +0.000 C 
BRANCH  16  17
ATOM     17  O   UNL     1     -13.871   9.647 -38.736  0.00  0.00    +0.000 OA
ATOM     18  C   UNL     1     -13.721   8.261 -38.405  0.00  0.00    +0.000 C 
ENDBRANCH  16  17
ENDBRANCH   8  16
TORSDOF 4
ENDMDL
