MODEL        2
REMARK  Name = 10466307
REMARK  6 active torsions:
REMARK  status: ('A' for Active; 'I' for Inactive)
REMARK    1  A    between atoms: O_2  and  C_9
REMARK    2  A    between atoms: O_3  and  C_11
REMARK    3  A    between atoms: O_4  and  C_15
REMARK    4  A    between atoms: O_4  and  C_16
REMARK    5  A    between atoms: C_8  and  C_13
REMARK    6  A    between atoms: C_12  and  C_15
REMARK                            x       y       z     vdW  Elec       q    Type
REMARK                         _______ _______ _______ _____ _____    ______ ____
ROOT
ATOM      1  O   UNL     1      33.655 -10.154   3.112  0.00  0.00    +0.000 OA
ATOM      2  C   UNL     1      33.143  -9.245   5.364  0.00  0.00    +0.000 C 
ATOM      3  C   UNL     1      33.838  -7.905   5.013  0.00  0.00    +0.000 C 
ATOM      4  C   UNL     1      31.646  -8.937   5.180  0.00  0.00    +0.000 C 
ATOM      5  C   UNL     1      31.529  -7.541   5.795  0.00  0.00    +0.000 C 
ATOM      6  C   UNL     1      32.776  -6.813   5.293  0.00  0.00    +0.000 C 
ATOM      7  C   UNL     1      33.667 -10.414   4.522  0.00  0.00    +0.000 C 
ATOM      8  C   UNL     1      34.308  -7.887   3.586  0.00  0.00    +0.000 C 
ATOM      9  C   UNL     1      30.732  -9.971   5.826  0.00  0.00    +0.000 C 
ATOM     10  C   UNL     1      34.168  -8.932   2.763  0.00  0.00    +0.000 C 
ENDROOT
BRANCH   5  11
ATOM     11  O   UNL     1      31.556  -7.609   7.217  0.00  0.00    +0.000 OA
ATOM     12  H   UNL     1      30.693  -7.951   7.510  0.00  0.00    +0.000 HD
ENDBRANCH   5  11
BRANCH   7  13
ATOM     13  O   UNL     1      34.986 -10.738   4.972  0.00  0.00    +0.000 OA
ATOM     14  H   UNL     1      35.072 -11.703   5.038  0.00  0.00    +0.000 HD
ENDBRANCH   7  13
BRANCH   8  16
ATOM     15  O   UNL     1      36.149  -6.506   3.023  0.00  0.00    +0.000 OA
ATOM     16  C   UNL     1      34.941  -6.685   3.041  0.00  0.00    +0.000 C 
BRANCH  16  17
ATOM     17  O   UNL     1      33.972  -5.853   2.582  0.00  0.00    +0.000 OA
ATOM     18  C   UNL     1      33.553  -6.085   1.233  0.00  0.00    +0.000 C 
ENDBRANCH  16  17
ENDBRANCH   8  16
TORSDOF 4
ENDMDL
