MODEL        2
REMARK  Name = 10466307
REMARK  6 active torsions:
REMARK  status: ('A' for Active; 'I' for Inactive)
REMARK    1  A    between atoms: O_2  and  C_9
REMARK    2  A    between atoms: O_3  and  C_11
REMARK    3  A    between atoms: O_4  and  C_15
REMARK    4  A    between atoms: O_4  and  C_16
REMARK    5  A    between atoms: C_8  and  C_13
REMARK    6  A    between atoms: C_12  and  C_15
REMARK                            x       y       z     vdW  Elec       q    Type
REMARK                         _______ _______ _______ _____ _____    ______ ____
ROOT
ATOM      1  O   UNL     1      27.779  40.216  17.116  0.00  0.00    +0.000 OA
ATOM      2  C   UNL     1      28.740  38.063  16.344  0.00  0.00    +0.000 C 
ATOM      3  C   UNL     1      28.124  38.258  14.936  0.00  0.00    +0.000 C 
ATOM      4  C   UNL     1      30.208  38.489  16.162  0.00  0.00    +0.000 C 
ATOM      5  C   UNL     1      30.555  37.869  14.807  0.00  0.00    +0.000 C 
ATOM      6  C   UNL     1      29.314  38.135  13.953  0.00  0.00    +0.000 C 
ATOM      7  C   UNL     1      27.977  38.832  17.429  0.00  0.00    +0.000 C 
ATOM      8  C   UNL     1      27.428  39.584  14.821  0.00  0.00    +0.000 C 
ATOM      9  C   UNL     1      31.116  38.032  17.297  0.00  0.00    +0.000 C 
ATOM     10  C   UNL     1      27.331  40.445  15.841  0.00  0.00    +0.000 C 
ENDROOT
BRANCH   5  11
ATOM     11  O   UNL     1      30.757  36.465  14.928  0.00  0.00    +0.000 OA
ATOM     12  H   UNL     1      30.698  36.242  15.873  0.00  0.00    +0.000 HD
ENDBRANCH   5  11
BRANCH   7  13
ATOM     13  O   UNL     1      26.727  38.173  17.654  0.00  0.00    +0.000 OA
ATOM     14  H   UNL     1      26.111  38.794  18.076  0.00  0.00    +0.000 HD
ENDBRANCH   7  13
BRANCH   8  16
ATOM     15  O   UNL     1      26.557  39.202  12.650  0.00  0.00    +0.000 OA
ATOM     16  C   UNL     1      26.828  39.986  13.547  0.00  0.00    +0.000 C 
BRANCH  16  17
ATOM     17  O   UNL     1      26.638  41.330  13.560  0.00  0.00    +0.000 OA
ATOM     18  C   UNL     1      27.789  42.115  13.228  0.00  0.00    +0.000 C 
ENDBRANCH  16  17
ENDBRANCH   8  16
TORSDOF 4
ENDMDL
