MODEL        2
REMARK  Name = 10466307
REMARK  6 active torsions:
REMARK  status: ('A' for Active; 'I' for Inactive)
REMARK    1  A    between atoms: O_2  and  C_9
REMARK    2  A    between atoms: O_3  and  C_11
REMARK    3  A    between atoms: O_4  and  C_15
REMARK    4  A    between atoms: O_4  and  C_16
REMARK    5  A    between atoms: C_8  and  C_13
REMARK    6  A    between atoms: C_12  and  C_15
REMARK                            x       y       z     vdW  Elec       q    Type
REMARK                         _______ _______ _______ _____ _____    ______ ____
ROOT
ATOM      1  O   UNL     1      16.908   9.765  11.734  0.00  0.00    +0.000 OA
ATOM      2  C   UNL     1      14.509  10.348  11.486  0.00  0.00    +0.000 C 
ATOM      3  C   UNL     1      14.228   9.946  12.956  0.00  0.00    +0.000 C 
ATOM      4  C   UNL     1      14.612  11.883  11.541  0.00  0.00    +0.000 C 
ATOM      5  C   UNL     1      13.470  12.246  12.493  0.00  0.00    +0.000 C 
ATOM      6  C   UNL     1      13.561  11.189  13.594  0.00  0.00    +0.000 C 
ATOM      7  C   UNL     1      15.741   9.641  10.911  0.00  0.00    +0.000 C 
ATOM      8  C   UNL     1      15.491   9.552  13.668  0.00  0.00    +0.000 C 
ATOM      9  C   UNL     1      14.505  12.545  10.173  0.00  0.00    +0.000 C 
ATOM     10  C   UNL     1      16.685   9.519  13.064  0.00  0.00    +0.000 C 
ENDROOT
BRANCH   5  11
ATOM     11  O   UNL     1      12.210  12.143  11.837  0.00  0.00    +0.000 OA
ATOM     12  H   UNL     1      11.906  13.048  11.648  0.00  0.00    +0.000 HD
ENDBRANCH   5  11
BRANCH   7  13
ATOM     13  O   UNL     1      15.411   8.265  10.693  0.00  0.00    +0.000 OA
ATOM     14  H   UNL     1      15.493   7.782  11.532  0.00  0.00    +0.000 HD
ENDBRANCH   7  13
BRANCH   8  16
ATOM     15  O   UNL     1      16.322   9.489  15.886  0.00  0.00    +0.000 OA
ATOM     16  C   UNL     1      15.448   9.193  15.086  0.00  0.00    +0.000 C 
BRANCH  16  17
ATOM     17  O   UNL     1      14.304   8.503  15.326  0.00  0.00    +0.000 OA
ATOM     18  C   UNL     1      14.464   7.287  16.066  0.00  0.00    +0.000 C 
ENDBRANCH  16  17
ENDBRANCH   8  16
TORSDOF 4
ENDMDL
