MODEL        2
REMARK  Name = 10466307
REMARK  6 active torsions:
REMARK  status: ('A' for Active; 'I' for Inactive)
REMARK    1  A    between atoms: O_2  and  C_9
REMARK    2  A    between atoms: O_3  and  C_11
REMARK    3  A    between atoms: O_4  and  C_15
REMARK    4  A    between atoms: O_4  and  C_16
REMARK    5  A    between atoms: C_8  and  C_13
REMARK    6  A    between atoms: C_12  and  C_15
REMARK                            x       y       z     vdW  Elec       q    Type
REMARK                         _______ _______ _______ _____ _____    ______ ____
ROOT
ATOM      1  O   UNL     1     -30.542  -3.293 -10.409  0.00  0.00    +0.000 OA
ATOM      2  C   UNL     1     -32.408  -4.895 -10.745  0.00  0.00    +0.000 C 
ATOM      3  C   UNL     1     -31.703  -5.502 -11.984  0.00  0.00    +0.000 C 
ATOM      4  C   UNL     1     -32.091  -5.896  -9.619  0.00  0.00    +0.000 C 
ATOM      5  C   UNL     1     -32.264  -7.241 -10.329  0.00  0.00    +0.000 C 
ATOM      6  C   UNL     1     -31.613  -7.020 -11.695  0.00  0.00    +0.000 C 
ATOM      7  C   UNL     1     -31.966  -3.454 -10.467  0.00  0.00    +0.000 C 
ATOM      8  C   UNL     1     -30.351  -4.885 -12.203  0.00  0.00    +0.000 C 
ATOM      9  C   UNL     1     -32.981  -5.730  -8.393  0.00  0.00    +0.000 C 
ATOM     10  C   UNL     1     -29.867  -3.904 -11.433  0.00  0.00    +0.000 C 
ENDROOT
BRANCH   5  11
ATOM     11  O   UNL     1     -33.643  -7.549 -10.502  0.00  0.00    +0.000 OA
ATOM     12  H   UNL     1     -33.706  -8.500 -10.699  0.00  0.00    +0.000 HD
ENDBRANCH   5  11
BRANCH   7  13
ATOM     13  O   UNL     1     -32.536  -2.606 -11.469  0.00  0.00    +0.000 OA
ATOM     14  H   UNL     1     -32.071  -1.754 -11.467  0.00  0.00    +0.000 HD
ENDBRANCH   7  13
BRANCH   8  16
ATOM     15  O   UNL     1     -29.506  -4.886 -14.417  0.00  0.00    +0.000 OA
ATOM     16  C   UNL     1     -29.498  -5.363 -13.293  0.00  0.00    +0.000 C 
BRANCH  16  17
ATOM     17  O   UNL     1     -28.735  -6.387 -12.831  0.00  0.00    +0.000 OA
ATOM     18  C   UNL     1     -28.797  -7.593 -13.600  0.00  0.00    +0.000 C 
ENDBRANCH  16  17
ENDBRANCH   8  16
TORSDOF 4
ENDMDL
