MODEL        2
REMARK  Name = 10466307
REMARK  6 active torsions:
REMARK  status: ('A' for Active; 'I' for Inactive)
REMARK    1  A    between atoms: O_2  and  C_9
REMARK    2  A    between atoms: O_3  and  C_11
REMARK    3  A    between atoms: O_4  and  C_15
REMARK    4  A    between atoms: O_4  and  C_16
REMARK    5  A    between atoms: C_8  and  C_13
REMARK    6  A    between atoms: C_12  and  C_15
REMARK                            x       y       z     vdW  Elec       q    Type
REMARK                         _______ _______ _______ _____ _____    ______ ____
ROOT
ATOM      1  O   UNL     1     -13.283  -7.523  -5.966  0.00  0.00    +0.000 OA
ATOM      2  C   UNL     1     -15.238  -9.009  -5.605  0.00  0.00    +0.000 C 
ATOM      3  C   UNL     1     -15.913  -8.484  -6.896  0.00  0.00    +0.000 C 
ATOM      4  C   UNL     1     -14.620 -10.352  -6.037  0.00  0.00    +0.000 C 
ATOM      5  C   UNL     1     -15.724 -10.941  -6.919  0.00  0.00    +0.000 C 
ATOM      6  C   UNL     1     -16.216  -9.748  -7.738  0.00  0.00    +0.000 C 
ATOM      7  C   UNL     1     -14.242  -8.004  -5.015  0.00  0.00    +0.000 C 
ATOM      8  C   UNL     1     -15.025  -7.516  -7.626  0.00  0.00    +0.000 C 
ATOM      9  C   UNL     1     -14.229 -11.243  -4.865  0.00  0.00    +0.000 C 
ATOM     10  C   UNL     1     -13.826  -7.142  -7.166  0.00  0.00    +0.000 C 
ENDROOT
BRANCH   5  11
ATOM     11  O   UNL     1     -16.792 -11.447  -6.124  0.00  0.00    +0.000 OA
ATOM     12  H   UNL     1     -16.756 -10.993  -5.264  0.00  0.00    +0.000 HD
ENDBRANCH   5  11
BRANCH   7  13
ATOM     13  O   UNL     1     -14.981  -6.922  -4.439  0.00  0.00    +0.000 OA
ATOM     14  H   UNL     1     -15.331  -6.362  -5.151  0.00  0.00    +0.000 HD
ENDBRANCH   7  13
BRANCH   8  16
ATOM     15  O   UNL     1     -16.568  -7.125  -9.381  0.00  0.00    +0.000 OA
ATOM     16  C   UNL     1     -15.459  -6.948  -8.904  0.00  0.00    +0.000 C 
BRANCH  16  17
ATOM     17  O   UNL     1     -14.438  -6.220  -9.425  0.00  0.00    +0.000 OA
ATOM     18  C   UNL     1     -14.609  -4.799  -9.373  0.00  0.00    +0.000 C 
ENDBRANCH  16  17
ENDBRANCH   8  16
TORSDOF 4
ENDMDL
