MODEL        2
REMARK  Name = 10466307
REMARK  6 active torsions:
REMARK  status: ('A' for Active; 'I' for Inactive)
REMARK    1  A    between atoms: O_2  and  C_9
REMARK    2  A    between atoms: O_3  and  C_11
REMARK    3  A    between atoms: O_4  and  C_15
REMARK    4  A    between atoms: O_4  and  C_16
REMARK    5  A    between atoms: C_8  and  C_13
REMARK    6  A    between atoms: C_12  and  C_15
REMARK                            x       y       z     vdW  Elec       q    Type
REMARK                         _______ _______ _______ _____ _____    ______ ____
ROOT
ATOM      1  O   UNL     1      22.456  -2.855   6.558  0.00  0.00    +0.000 OA
ATOM      2  C   UNL     1      22.031  -1.986   8.843  0.00  0.00    +0.000 C 
ATOM      3  C   UNL     1      20.860  -1.113   8.326  0.00  0.00    +0.000 C 
ATOM      4  C   UNL     1      21.329  -3.211   9.456  0.00  0.00    +0.000 C 
ATOM      5  C   UNL     1      20.143  -2.571  10.180  0.00  0.00    +0.000 C 
ATOM      6  C   UNL     1      19.644  -1.509   9.198  0.00  0.00    +0.000 C 
ATOM      7  C   UNL     1      23.050  -2.311   7.745  0.00  0.00    +0.000 C 
ATOM      8  C   UNL     1      20.608  -1.345   6.863  0.00  0.00    +0.000 C 
ATOM      9  C   UNL     1      22.233  -4.033  10.367  0.00  0.00    +0.000 C 
ATOM     10  C   UNL     1      21.351  -2.173   6.120  0.00  0.00    +0.000 C 
ENDROOT
BRANCH   5  11
ATOM     11  O   UNL     1      20.563  -1.944  11.387  0.00  0.00    +0.000 OA
ATOM     12  H   UNL     1      20.409  -2.574  12.112  0.00  0.00    +0.000 HD
ENDBRANCH   5  11
BRANCH   7  13
ATOM     13  O   UNL     1      23.789  -1.121   7.448  0.00  0.00    +0.000 OA
ATOM     14  H   UNL     1      24.578  -1.357   6.935  0.00  0.00    +0.000 HD
ENDBRANCH   7  13
BRANCH   8  16
ATOM     15  O   UNL     1      18.339  -1.021   6.260  0.00  0.00    +0.000 OA
ATOM     16  C   UNL     1      19.503  -0.656   6.194  0.00  0.00    +0.000 C 
BRANCH  16  17
ATOM     17  O   UNL     1      19.999   0.415   5.524  0.00  0.00    +0.000 OA
ATOM     18  C   UNL     1      20.766   0.104   4.355  0.00  0.00    +0.000 C 
ENDBRANCH  16  17
ENDBRANCH   8  16
TORSDOF 4
ENDMDL
