MODEL        2
REMARK  Name = 10466307
REMARK  6 active torsions:
REMARK  status: ('A' for Active; 'I' for Inactive)
REMARK    1  A    between atoms: O_2  and  C_9
REMARK    2  A    between atoms: O_3  and  C_11
REMARK    3  A    between atoms: O_4  and  C_15
REMARK    4  A    between atoms: O_4  and  C_16
REMARK    5  A    between atoms: C_8  and  C_13
REMARK    6  A    between atoms: C_12  and  C_15
REMARK                            x       y       z     vdW  Elec       q    Type
REMARK                         _______ _______ _______ _____ _____    ______ ____
ROOT
ATOM      1  O   UNL     1     148.495 171.035 140.434  0.00  0.00    +0.000 OA
ATOM      2  C   UNL     1     149.583 172.572 142.051  0.00  0.00    +0.000 C 
ATOM      3  C   UNL     1     148.528 172.228 143.132  0.00  0.00    +0.000 C 
ATOM      4  C   UNL     1     150.798 171.711 142.442  0.00  0.00    +0.000 C 
ATOM      5  C   UNL     1     150.819 171.862 143.965  0.00  0.00    +0.000 C 
ATOM      6  C   UNL     1     149.346 171.765 144.363  0.00  0.00    +0.000 C 
ATOM      7  C   UNL     1     149.061 172.338 140.629  0.00  0.00    +0.000 C 
ATOM      8  C   UNL     1     147.575 171.170 142.653  0.00  0.00    +0.000 C 
ATOM      9  C   UNL     1     152.091 172.148 141.765  0.00  0.00    +0.000 C 
ATOM     10  C   UNL     1     147.631 170.645 141.424  0.00  0.00    +0.000 C 
ENDROOT
BRANCH   5  11
ATOM     11  O   UNL     1     151.332 173.135 144.343  0.00  0.00    +0.000 OA
ATOM     12  H   UNL     1     151.333 173.172 145.315  0.00  0.00    +0.000 HD
ENDBRANCH   5  11
BRANCH   7  13
ATOM     13  O   UNL     1     148.108 173.361 140.324  0.00  0.00    +0.000 OA
ATOM     14  H   UNL     1     147.221 173.054 140.571  0.00  0.00    +0.000 HD
ENDBRANCH   7  13
BRANCH   8  16
ATOM     15  O   UNL     1     145.653 171.363 144.026  0.00  0.00    +0.000 OA
ATOM     16  C   UNL     1     146.535 170.664 143.551  0.00  0.00    +0.000 C 
BRANCH  16  17
ATOM     17  O   UNL     1     146.731 169.334 143.738  0.00  0.00    +0.000 OA
ATOM     18  C   UNL     1     145.690 168.485 143.242  0.00  0.00    +0.000 C 
ENDBRANCH  16  17
ENDBRANCH   8  16
TORSDOF 4
ENDMDL
