MODEL        3
REMARK  Name = 161313
REMARK  3 active torsions:
REMARK  status: ('A' for Active; 'I' for Inactive)
REMARK    1  A    between atoms: N_1  and  C_10
REMARK    2  A    between atoms: C_4  and  C_9
REMARK    3  A    between atoms: C_14  and  C_15
REMARK                            x       y       z     vdW  Elec       q    Type
REMARK                         _______ _______ _______ _____ _____    ______ ____
ROOT
ATOM      1  N   UNL     1      22.416  -2.163   7.098  0.00  0.00    +0.000 NA
ATOM      2  C   UNL     1      22.181  -1.389   4.832  0.00  0.00    +0.000 A 
ATOM      3  C   UNL     1      20.853  -1.071   5.054  0.00  0.00    +0.000 A 
ATOM      4  C   UNL     1      22.919  -1.926   5.866  0.00  0.00    +0.000 A 
ATOM      5  C   UNL     1      20.299  -1.301   6.309  0.00  0.00    +0.000 A 
ATOM      6  C   UNL     1      21.116  -1.843   7.288  0.00  0.00    +0.000 A 
ENDROOT
BRANCH   2   8
ATOM      7  N   UNL     1      22.816   0.284   3.066  0.00  0.00    +0.000 NA
ATOM      8  C   UNL     1      22.819  -1.149   3.463  0.00  0.00    +0.000 C 
ATOM      9  C   UNL     1      24.253  -1.728   3.478  0.00  0.00    +0.000 C 
ATOM     10  C   UNL     1      24.972  -1.506   2.154  0.00  0.00    +0.000 C 
ATOM     11  C   UNL     1      24.932  -0.031   1.786  0.00  0.00    +0.000 C 
ATOM     12  C   UNL     1      23.496   0.486   1.773  0.00  0.00    +0.000 C 
ATOM     13  C   UNL     1      21.453   0.823   2.966  0.00  0.00    +0.000 C 
ENDBRANCH   2   8
BRANCH   6  15
ATOM     14  N   UNL     1      20.954  -2.036  11.007  0.00  0.00    +0.000 NA
ATOM     15  C   UNL     1      20.610  -2.108   8.615  0.00  0.00    +0.000 A 
ATOM     16  C   UNL     1      19.351  -2.666   8.804  0.00  0.00    +0.000 A 
ATOM     17  C   UNL     1      21.365  -1.814   9.738  0.00  0.00    +0.000 A 
ATOM     18  C   UNL     1      18.892  -2.909  10.095  0.00  0.00    +0.000 A 
ATOM     19  C   UNL     1      19.723  -2.580  11.152  0.00  0.00    +0.000 A 
ENDBRANCH   6  15
TORSDOF 2
ENDMDL
