MODEL        3
REMARK  Name = 161313
REMARK  3 active torsions:
REMARK  status: ('A' for Active; 'I' for Inactive)
REMARK    1  A    between atoms: N_1  and  C_10
REMARK    2  A    between atoms: C_4  and  C_9
REMARK    3  A    between atoms: C_14  and  C_15
REMARK                            x       y       z     vdW  Elec       q    Type
REMARK                         _______ _______ _______ _____ _____    ______ ____
ROOT
ATOM      1  N   UNL     1      11.350  41.486  66.605  0.00  0.00    +0.000 NA
ATOM      2  C   UNL     1      12.594  41.061  68.621  0.00  0.00    +0.000 A 
ATOM      3  C   UNL     1      11.679  40.099  69.009  0.00  0.00    +0.000 A 
ATOM      4  C   UNL     1      12.397  41.724  67.428  0.00  0.00    +0.000 A 
ATOM      5  C   UNL     1      10.588  39.826  68.189  0.00  0.00    +0.000 A 
ATOM      6  C   UNL     1      10.471  40.541  67.008  0.00  0.00    +0.000 A 
ENDROOT
BRANCH   2   8
ATOM      7  N   UNL     1      13.544  42.493  70.455  0.00  0.00    +0.000 NA
ATOM      8  C   UNL     1      13.802  41.384  69.501  0.00  0.00    +0.000 C 
ATOM      9  C   UNL     1      14.237  40.094  70.236  0.00  0.00    +0.000 C 
ATOM     10  C   UNL     1      15.424  40.336  71.158  0.00  0.00    +0.000 C 
ATOM     11  C   UNL     1      15.116  41.484  72.107  0.00  0.00    +0.000 C 
ATOM     12  C   UNL     1      14.706  42.733  71.331  0.00  0.00    +0.000 C 
ATOM     13  C   UNL     1      13.212  43.746  69.764  0.00  0.00    +0.000 C 
ENDBRANCH   2   8
BRANCH   6  15
ATOM     14  N   UNL     1       8.595  39.622  63.922  0.00  0.00    +0.000 NA
ATOM     15  C   UNL     1       9.366  40.311  66.107  0.00  0.00    +0.000 A 
ATOM     16  C   UNL     1       8.056  40.540  66.507  0.00  0.00    +0.000 A 
ATOM     17  C   UNL     1       9.581  39.857  64.816  0.00  0.00    +0.000 A 
ATOM     18  C   UNL     1       7.012  40.310  65.616  0.00  0.00    +0.000 A 
ATOM     19  C   UNL     1       7.332  39.855  64.347  0.00  0.00    +0.000 A 
ENDBRANCH   6  15
TORSDOF 2
ENDMDL
