MODEL        3
REMARK  Name = 161313
REMARK  3 active torsions:
REMARK  status: ('A' for Active; 'I' for Inactive)
REMARK    1  A    between atoms: N_1  and  C_10
REMARK    2  A    between atoms: C_4  and  C_9
REMARK    3  A    between atoms: C_14  and  C_15
REMARK                            x       y       z     vdW  Elec       q    Type
REMARK                         _______ _______ _______ _____ _____    ______ ____
ROOT
ATOM      1  N   UNL     1       6.618   5.652  93.807  0.00  0.00    +0.000 NA
ATOM      2  C   UNL     1       7.956   4.193  92.440  0.00  0.00    +0.000 A 
ATOM      3  C   UNL     1       9.024   5.069  92.511  0.00  0.00    +0.000 A 
ATOM      4  C   UNL     1       6.785   4.516  93.094  0.00  0.00    +0.000 A 
ATOM      5  C   UNL     1       8.890   6.248  93.236  0.00  0.00    +0.000 A 
ATOM      6  C   UNL     1       7.677   6.490  93.861  0.00  0.00    +0.000 A 
ENDROOT
BRANCH   2   8
ATOM      7  N   UNL     1       9.150   2.925  90.627  0.00  0.00    +0.000 NA
ATOM      8  C   UNL     1       8.072   2.888  91.650  0.00  0.00    +0.000 C 
ATOM      9  C   UNL     1       8.277   1.724  92.647  0.00  0.00    +0.000 C 
ATOM     10  C   UNL     1       8.429   0.385  91.937  0.00  0.00    +0.000 C 
ATOM     11  C   UNL     1       9.534   0.476  90.895  0.00  0.00    +0.000 C 
ATOM     12  C   UNL     1       9.276   1.631  89.931  0.00  0.00    +0.000 C 
ATOM     13  C   UNL     1       8.921   3.974  89.625  0.00  0.00    +0.000 C 
ENDBRANCH   2   8
BRANCH   6  15
ATOM     14  N   UNL     1       6.065   8.953  96.147  0.00  0.00    +0.000 NA
ATOM     15  C   UNL     1       7.466   7.693  94.632  0.00  0.00    +0.000 A 
ATOM     16  C   UNL     1       8.397   8.724  94.622  0.00  0.00    +0.000 A 
ATOM     17  C   UNL     1       6.326   7.855  95.403  0.00  0.00    +0.000 A 
ATOM     18  C   UNL     1       8.165   9.871  95.375  0.00  0.00    +0.000 A 
ATOM     19  C   UNL     1       6.995   9.936  96.113  0.00  0.00    +0.000 A 
ENDBRANCH   6  15
TORSDOF 2
ENDMDL
