MODEL        3
REMARK  Name = 161313
REMARK  3 active torsions:
REMARK  status: ('A' for Active; 'I' for Inactive)
REMARK    1  A    between atoms: N_1  and  C_10
REMARK    2  A    between atoms: C_4  and  C_9
REMARK    3  A    between atoms: C_14  and  C_15
REMARK                            x       y       z     vdW  Elec       q    Type
REMARK                         _______ _______ _______ _____ _____    ______ ____
ROOT
ATOM      1  N   UNL     1      31.902  -7.517   6.072  0.00  0.00    +0.000 NA
ATOM      2  C   UNL     1      30.274  -9.209   6.597  0.00  0.00    +0.000 A 
ATOM      3  C   UNL     1      30.817 -10.058   5.650  0.00  0.00    +0.000 A 
ATOM      4  C   UNL     1      30.837  -7.963   6.776  0.00  0.00    +0.000 A 
ATOM      5  C   UNL     1      31.913  -9.635   4.905  0.00  0.00    +0.000 A 
ATOM      6  C   UNL     1      32.413  -8.367   5.153  0.00  0.00    +0.000 A 
ENDROOT
BRANCH   2   8
ATOM      7  N   UNL     1      29.408  -9.881   8.860  0.00  0.00    +0.000 NA
ATOM      8  C   UNL     1      29.068  -9.645   7.432  0.00  0.00    +0.000 C 
ATOM      9  C   UNL     1      27.954  -8.583   7.282  0.00  0.00    +0.000 C 
ATOM     10  C   UNL     1      26.722  -8.929   8.107  0.00  0.00    +0.000 C 
ATOM     11  C   UNL     1      27.120  -9.171   9.555  0.00  0.00    +0.000 C 
ATOM     12  C   UNL     1      28.211 -10.235   9.647  0.00  0.00    +0.000 C 
ATOM     13  C   UNL     1      30.405 -10.947   9.019  0.00  0.00    +0.000 C 
ENDBRANCH   2   8
BRANCH   6  15
ATOM     14  N   UNL     1      34.609  -6.015   3.272  0.00  0.00    +0.000 NA
ATOM     15  C   UNL     1      33.550  -7.860   4.419  0.00  0.00    +0.000 A 
ATOM     16  C   UNL     1      34.646  -8.670   4.147  0.00  0.00    +0.000 A 
ATOM     17  C   UNL     1      33.580  -6.552   3.964  0.00  0.00    +0.000 A 
ATOM     18  C   UNL     1      35.725  -8.153   3.437  0.00  0.00    +0.000 A 
ATOM     19  C   UNL     1      35.659  -6.833   3.026  0.00  0.00    +0.000 A 
ENDBRANCH   6  15
TORSDOF 2
ENDMDL
