MODEL        3
REMARK  Name = 161313
REMARK  3 active torsions:
REMARK  status: ('A' for Active; 'I' for Inactive)
REMARK    1  A    between atoms: N_1  and  C_10
REMARK    2  A    between atoms: C_4  and  C_9
REMARK    3  A    between atoms: C_14  and  C_15
REMARK                            x       y       z     vdW  Elec       q    Type
REMARK                         _______ _______ _______ _____ _____    ______ ____
ROOT
ATOM      1  N   UNL     1      31.360  84.628  25.939  0.00  0.00    +0.000 NA
ATOM      2  C   UNL     1      30.403  86.591  24.929  0.00  0.00    +0.000 A 
ATOM      3  C   UNL     1      29.189  86.343  25.544  0.00  0.00    +0.000 A 
ATOM      4  C   UNL     1      31.450  85.721  25.149  0.00  0.00    +0.000 A 
ATOM      5  C   UNL     1      29.057  85.228  26.365  0.00  0.00    +0.000 A 
ATOM      6  C   UNL     1      30.163  84.409  26.528  0.00  0.00    +0.000 A 
ENDROOT
BRANCH   2   8
ATOM      7  N   UNL     1      31.990  88.273  23.944  0.00  0.00    +0.000 NA
ATOM      8  C   UNL     1      30.580  87.808  24.020  0.00  0.00    +0.000 C 
ATOM      9  C   UNL     1      30.020  87.464  22.619  0.00  0.00    +0.000 C 
ATOM     10  C   UNL     1      30.183  88.620  21.642  0.00  0.00    +0.000 C 
ATOM     11  C   UNL     1      31.636  89.067  21.606  0.00  0.00    +0.000 C 
ATOM     12  C   UNL     1      32.133  89.405  23.009  0.00  0.00    +0.000 C 
ATOM     13  C   UNL     1      32.505  88.683  25.256  0.00  0.00    +0.000 C 
ENDBRANCH   2   8
BRANCH   6  15
ATOM     14  N   UNL     1      30.187  82.275  29.584  0.00  0.00    +0.000 NA
ATOM     15  C   UNL     1      30.101  83.235  27.366  0.00  0.00    +0.000 A 
ATOM     16  C   UNL     1      29.906  81.973  26.819  0.00  0.00    +0.000 A 
ATOM     17  C   UNL     1      30.234  83.332  28.742  0.00  0.00    +0.000 A 
ATOM     18  C   UNL     1      29.851  80.860  27.652  0.00  0.00    +0.000 A 
ATOM     19  C   UNL     1      29.995  81.063  29.015  0.00  0.00    +0.000 A 
ENDBRANCH   6  15
TORSDOF 2
ENDMDL
