MODEL        3
REMARK  Name = 161313
REMARK  3 active torsions:
REMARK  status: ('A' for Active; 'I' for Inactive)
REMARK    1  A    between atoms: N_1  and  C_10
REMARK    2  A    between atoms: C_4  and  C_9
REMARK    3  A    between atoms: C_14  and  C_15
REMARK                            x       y       z     vdW  Elec       q    Type
REMARK                         _______ _______ _______ _____ _____    ______ ____
ROOT
ATOM      1  N   UNL     1      12.918  11.806  11.979  0.00  0.00    +0.000 NA
ATOM      2  C   UNL     1      14.914  12.752  11.024  0.00  0.00    +0.000 A 
ATOM      3  C   UNL     1      14.616  13.988  11.569  0.00  0.00    +0.000 A 
ATOM      4  C   UNL     1      14.051  11.700  11.249  0.00  0.00    +0.000 A 
ATOM      5  C   UNL     1      13.458  14.136  12.327  0.00  0.00    +0.000 A 
ATOM      6  C   UNL     1      12.651  13.024  12.500  0.00  0.00    +0.000 A 
ENDROOT
BRANCH   2   8
ATOM      7  N   UNL     1      16.265  13.501   9.041  0.00  0.00    +0.000 NA
ATOM      8  C   UNL     1      16.178  12.557  10.186  0.00  0.00    +0.000 C 
ATOM      9  C   UNL     1      17.410  12.677  11.115  0.00  0.00    +0.000 C 
ATOM     10  C   UNL     1      18.717  12.521  10.350  0.00  0.00    +0.000 C 
ATOM     11  C   UNL     1      18.755  13.498   9.185  0.00  0.00    +0.000 C 
ATOM     12  C   UNL     1      17.526  13.328   8.295  0.00  0.00    +0.000 C 
ATOM     13  C   UNL     1      15.143  13.337   8.107  0.00  0.00    +0.000 C 
ENDBRANCH   2   8
BRANCH   6  15
ATOM     14  N   UNL     1      10.358  13.034  15.439  0.00  0.00    +0.000 NA
ATOM     15  C   UNL     1      11.434  13.103  13.275  0.00  0.00    +0.000 A 
ATOM     16  C   UNL     1      10.205  13.312  12.661  0.00  0.00    +0.000 A 
ATOM     17  C   UNL     1      11.457  12.972  14.654  0.00  0.00    +0.000 A 
ATOM     18  C   UNL     1       9.051  13.383  13.435  0.00  0.00    +0.000 A 
ATOM     19  C   UNL     1       9.180  13.239  14.806  0.00  0.00    +0.000 A 
ENDBRANCH   6  15
TORSDOF 2
ENDMDL
