MODEL        3
REMARK  Name = 161313
REMARK  3 active torsions:
REMARK  status: ('A' for Active; 'I' for Inactive)
REMARK    1  A    between atoms: N_1  and  C_10
REMARK    2  A    between atoms: C_4  and  C_9
REMARK    3  A    between atoms: C_14  and  C_15
REMARK                            x       y       z     vdW  Elec       q    Type
REMARK                         _______ _______ _______ _____ _____    ______ ____
ROOT
ATOM      1  N   UNL     1      60.454  33.158  74.421  0.00  0.00    +0.000 NA
ATOM      2  C   UNL     1      60.134  32.052  76.533  0.00  0.00    +0.000 A 
ATOM      3  C   UNL     1      58.789  32.375  76.524  0.00  0.00    +0.000 A 
ATOM      4  C   UNL     1      60.923  32.456  75.477  0.00  0.00    +0.000 A 
ATOM      5  C   UNL     1      58.270  33.096  75.454  0.00  0.00    +0.000 A 
ATOM      6  C   UNL     1      59.136  33.460  74.437  0.00  0.00    +0.000 A 
ENDROOT
BRANCH   2   8
ATOM      7  N   UNL     1      61.191  32.129  78.813  0.00  0.00    +0.000 NA
ATOM      8  C   UNL     1      60.735  31.260  77.695  0.00  0.00    +0.000 C 
ATOM      9  C   UNL     1      59.696  30.220  78.175  0.00  0.00    +0.000 C 
ATOM     10  C   UNL     1      60.208  29.403  79.353  0.00  0.00    +0.000 C 
ATOM     11  C   UNL     1      60.672  30.334  80.464  0.00  0.00    +0.000 C 
ATOM     12  C   UNL     1      61.704  31.330  79.942  0.00  0.00    +0.000 C 
ATOM     13  C   UNL     1      62.240  33.065  78.388  0.00  0.00    +0.000 C 
ENDBRANCH   2   8
BRANCH   6  15
ATOM     14  N   UNL     1      59.022  34.931  71.014  0.00  0.00    +0.000 NA
ATOM     15  C   UNL     1      58.668  34.209  73.294  0.00  0.00    +0.000 A 
ATOM     16  C   UNL     1      57.469  34.910  73.339  0.00  0.00    +0.000 A 
ATOM     17  C   UNL     1      59.401  34.250  72.119  0.00  0.00    +0.000 A 
ATOM     18  C   UNL     1      57.045  35.623  72.222  0.00  0.00    +0.000 A 
ATOM     19  C   UNL     1      57.849  35.601  71.095  0.00  0.00    +0.000 A 
ENDBRANCH   6  15
TORSDOF 2
ENDMDL
