MODEL        3
REMARK  Name = 161313
REMARK  3 active torsions:
REMARK  status: ('A' for Active; 'I' for Inactive)
REMARK    1  A    between atoms: N_1  and  C_10
REMARK    2  A    between atoms: C_4  and  C_9
REMARK    3  A    between atoms: C_14  and  C_15
REMARK                            x       y       z     vdW  Elec       q    Type
REMARK                         _______ _______ _______ _____ _____    ______ ____
ROOT
ATOM      1  N   UNL     1     151.026 172.029 141.611  0.00  0.00    +0.000 NA
ATOM      2  C   UNL     1     149.006 172.097 142.918  0.00  0.00    +0.000 A 
ATOM      3  C   UNL     1     149.738 172.244 144.083  0.00  0.00    +0.000 A 
ATOM      4  C   UNL     1     149.678 171.994 141.718  0.00  0.00    +0.000 A 
ATOM      5  C   UNL     1     151.127 172.284 144.013  0.00  0.00    +0.000 A 
ATOM      6  C   UNL     1     151.717 172.174 142.764  0.00  0.00    +0.000 A 
ENDROOT
BRANCH   2   8
ATOM      7  N   UNL     1     146.957 170.831 143.636  0.00  0.00    +0.000 NA
ATOM      8  C   UNL     1     147.478 172.048 142.961  0.00  0.00    +0.000 C 
ATOM      9  C   UNL     1     146.962 173.338 143.643  0.00  0.00    +0.000 C 
ATOM     10  C   UNL     1     145.444 173.357 143.750  0.00  0.00    +0.000 C 
ATOM     11  C   UNL     1     144.958 172.089 144.436  0.00  0.00    +0.000 C 
ATOM     12  C   UNL     1     145.485 170.849 143.718  0.00  0.00    +0.000 C 
ATOM     13  C   UNL     1     147.372 169.601 142.948  0.00  0.00    +0.000 C 
ENDBRANCH   2   8
BRANCH   6  15
ATOM     14  N   UNL     1     155.090 171.865 141.210  0.00  0.00    +0.000 NA
ATOM     15  C   UNL     1     153.153 172.209 142.615  0.00  0.00    +0.000 A 
ATOM     16  C   UNL     1     153.974 172.596 143.667  0.00  0.00    +0.000 A 
ATOM     17  C   UNL     1     153.754 171.856 141.418  0.00  0.00    +0.000 A 
ATOM     18  C   UNL     1     155.354 172.618 143.492  0.00  0.00    +0.000 A 
ATOM     19  C   UNL     1     155.858 172.248 142.257  0.00  0.00    +0.000 A 
ENDBRANCH   6  15
TORSDOF 2
ENDMDL
