MODEL        3
REMARK  Name = 161313
REMARK  3 active torsions:
REMARK  status: ('A' for Active; 'I' for Inactive)
REMARK    1  A    between atoms: N_1  and  C_10
REMARK    2  A    between atoms: C_4  and  C_9
REMARK    3  A    between atoms: C_14  and  C_15
REMARK                            x       y       z     vdW  Elec       q    Type
REMARK                         _______ _______ _______ _____ _____    ______ ____
ROOT
ATOM      1  N   UNL     1     -42.290  30.774   5.643  0.00  0.00    +0.000 NA
ATOM      2  C   UNL     1     -40.084  29.813   5.598  0.00  0.00    +0.000 A 
ATOM      3  C   UNL     1     -39.921  30.192   4.278  0.00  0.00    +0.000 A 
ATOM      4  C   UNL     1     -41.268  30.118   6.237  0.00  0.00    +0.000 A 
ATOM      5  C   UNL     1     -40.951  30.869   3.632  0.00  0.00    +0.000 A 
ATOM      6  C   UNL     1     -42.104  31.133   4.353  0.00  0.00    +0.000 A 
ENDROOT
BRANCH   2   8
ATOM      7  N   UNL     1     -38.750  29.575   7.715  0.00  0.00    +0.000 NA
ATOM      8  C   UNL     1     -38.971  29.067   6.336  0.00  0.00    +0.000 C 
ATOM      9  C   UNL     1     -39.305  27.557   6.336  0.00  0.00    +0.000 C 
ATOM     10  C   UNL     1     -38.254  26.741   7.077  0.00  0.00    +0.000 C 
ATOM     11  C   UNL     1     -38.055  27.304   8.476  0.00  0.00    +0.000 C 
ATOM     12  C   UNL     1     -37.717  28.792   8.419  0.00  0.00    +0.000 C 
ATOM     13  C   UNL     1     -38.350  30.989   7.722  0.00  0.00    +0.000 C 
ENDBRANCH   2   8
BRANCH   6  15
ATOM     14  N   UNL     1     -44.886  31.935   2.005  0.00  0.00    +0.000 NA
ATOM     15  C   UNL     1     -43.214  31.833   3.748  0.00  0.00    +0.000 A 
ATOM     16  C   UNL     1     -43.682  33.029   4.278  0.00  0.00    +0.000 A 
ATOM     17  C   UNL     1     -43.844  31.332   2.621  0.00  0.00    +0.000 A 
ATOM     18  C   UNL     1     -44.752  33.680   3.673  0.00  0.00    +0.000 A 
ATOM     19  C   UNL     1     -45.314  33.097   2.549  0.00  0.00    +0.000 A 
ENDBRANCH   6  15
TORSDOF 2
ENDMDL
