MODEL        3
REMARK  Name = 161313
REMARK  3 active torsions:
REMARK  status: ('A' for Active; 'I' for Inactive)
REMARK    1  A    between atoms: N_1  and  C_10
REMARK    2  A    between atoms: C_4  and  C_9
REMARK    3  A    between atoms: C_14  and  C_15
REMARK                            x       y       z     vdW  Elec       q    Type
REMARK                         _______ _______ _______ _____ _____    ______ ____
ROOT
ATOM      1  N   UNL     1     -12.183  14.682 -41.381  0.00  0.00    +0.000 NA
ATOM      2  C   UNL     1     -13.268  12.730 -40.484  0.00  0.00    +0.000 A 
ATOM      3  C   UNL     1     -13.697  13.448 -39.382  0.00  0.00    +0.000 A 
ATOM      4  C   UNL     1     -12.523  13.375 -41.449  0.00  0.00    +0.000 A 
ATOM      5  C   UNL     1     -13.367  14.795 -39.276  0.00  0.00    +0.000 A 
ATOM      6  C   UNL     1     -12.615  15.359 -40.294  0.00  0.00    +0.000 A 
ENDROOT
BRANCH   2   8
ATOM      7  N   UNL     1     -12.471  10.353 -40.314  0.00  0.00    +0.000 NA
ATOM      8  C   UNL     1     -13.615  11.248 -40.629  0.00  0.00    +0.000 C 
ATOM      9  C   UNL     1     -14.840  10.937 -39.737  0.00  0.00    +0.000 C 
ATOM     10  C   UNL     1     -15.235   9.468 -39.804  0.00  0.00    +0.000 C 
ATOM     11  C   UNL     1     -14.032   8.594 -39.485  0.00  0.00    +0.000 C 
ATOM     12  C   UNL     1     -12.858   8.932 -40.400  0.00  0.00    +0.000 C 
ATOM     13  C   UNL     1     -11.330  10.581 -41.211  0.00  0.00    +0.000 C 
ENDBRANCH   2   8
BRANCH   6  15
ATOM     14  N   UNL     1     -12.242  18.925 -41.312  0.00  0.00    +0.000 NA
ATOM     15  C   UNL     1     -12.235  16.752 -40.252  0.00  0.00    +0.000 A 
ATOM     16  C   UNL     1     -11.527  17.270 -39.175  0.00  0.00    +0.000 A 
ATOM     17  C   UNL     1     -12.566  17.613 -41.286  0.00  0.00    +0.000 A 
ATOM     18  C   UNL     1     -11.175  18.617 -39.164  0.00  0.00    +0.000 A 
ATOM     19  C   UNL     1     -11.553  19.394 -40.246  0.00  0.00    +0.000 A 
ENDBRANCH   6  15
TORSDOF 2
ENDMDL
