MODEL        3
REMARK  Name = 161313
REMARK  3 active torsions:
REMARK  status: ('A' for Active; 'I' for Inactive)
REMARK    1  A    between atoms: N_1  and  C_10
REMARK    2  A    between atoms: C_4  and  C_9
REMARK    3  A    between atoms: C_14  and  C_15
REMARK                            x       y       z     vdW  Elec       q    Type
REMARK                         _______ _______ _______ _____ _____    ______ ____
ROOT
ATOM      1  N   UNL     1      10.922  -0.551  15.834  0.00  0.00    +0.000 NA
ATOM      2  C   UNL     1      10.250   1.692  16.393  0.00  0.00    +0.000 A 
ATOM      3  C   UNL     1      10.989   1.645  17.562  0.00  0.00    +0.000 A 
ATOM      4  C   UNL     1      10.242   0.587  15.567  0.00  0.00    +0.000 A 
ATOM      5  C   UNL     1      11.702   0.491  17.872  0.00  0.00    +0.000 A 
ATOM      6  C   UNL     1      11.636  -0.569  16.982  0.00  0.00    +0.000 A 
ENDROOT
BRANCH   2   8
ATOM      7  N   UNL     1       8.066   2.925  16.551  0.00  0.00    +0.000 NA
ATOM      8  C   UNL     1       9.456   2.945  16.025  0.00  0.00    +0.000 C 
ATOM      9  C   UNL     1      10.232   4.187  16.524  0.00  0.00    +0.000 C 
ATOM     10  C   UNL     1       9.493   5.482  16.219  0.00  0.00    +0.000 C 
ATOM     11  C   UNL     1       8.076   5.409  16.767  0.00  0.00    +0.000 C 
ATOM     12  C   UNL     1       7.351   4.176  16.234  0.00  0.00    +0.000 C 
ATOM     13  C   UNL     1       7.292   1.797  16.017  0.00  0.00    +0.000 C 
ENDBRANCH   2   8
BRANCH   6  15
ATOM     14  N   UNL     1      14.132  -2.945  18.400  0.00  0.00    +0.000 NA
ATOM     15  C   UNL     1      12.350  -1.798  17.237  0.00  0.00    +0.000 A 
ATOM     16  C   UNL     1      11.987  -2.982  16.608  0.00  0.00    +0.000 A 
ATOM     17  C   UNL     1      13.420  -1.832  18.116  0.00  0.00    +0.000 A 
ATOM     18  C   UNL     1      12.695  -4.150  16.874  0.00  0.00    +0.000 A 
ATOM     19  C   UNL     1      13.749  -4.079  17.769  0.00  0.00    +0.000 A 
ENDBRANCH   6  15
TORSDOF 2
ENDMDL
