MODEL        3
REMARK  Name = 161313
REMARK  3 active torsions:
REMARK  status: ('A' for Active; 'I' for Inactive)
REMARK    1  A    between atoms: N_1  and  C_10
REMARK    2  A    between atoms: C_4  and  C_9
REMARK    3  A    between atoms: C_14  and  C_15
REMARK                            x       y       z     vdW  Elec       q    Type
REMARK                         _______ _______ _______ _____ _____    ______ ____
ROOT
ATOM      1  N   UNL     1     -29.585  -4.561 -12.670  0.00  0.00    +0.000 NA
ATOM      2  C   UNL     1     -29.578  -6.906 -13.209  0.00  0.00    +0.000 A 
ATOM      3  C   UNL     1     -30.532  -7.155 -12.239  0.00  0.00    +0.000 A 
ATOM      4  C   UNL     1     -29.136  -5.613 -13.392  0.00  0.00    +0.000 A 
ATOM      5  C   UNL     1     -31.019  -6.098 -11.476  0.00  0.00    +0.000 A 
ATOM      6  C   UNL     1     -30.517  -4.832 -11.729  0.00  0.00    +0.000 A 
ENDROOT
BRANCH   2   8
ATOM      7  N   UNL     1     -29.485  -7.988 -15.476  0.00  0.00    +0.000 NA
ATOM      8  C   UNL     1     -29.023  -8.046 -14.064  0.00  0.00    +0.000 C 
ATOM      9  C   UNL     1     -27.479  -8.027 -13.972  0.00  0.00    +0.000 C 
ATOM     10  C   UNL     1     -26.844  -9.120 -14.820  0.00  0.00    +0.000 C 
ATOM     11  C   UNL     1     -27.353  -9.026 -16.250  0.00  0.00    +0.000 C 
ATOM     12  C   UNL     1     -28.879  -9.062 -16.286  0.00  0.00    +0.000 C 
ATOM     13  C   UNL     1     -30.946  -8.091 -15.582  0.00  0.00    +0.000 C 
ENDBRANCH   2   8
BRANCH   6  15
ATOM     14  N   UNL     1     -30.635  -1.392 -10.299  0.00  0.00    +0.000 NA
ATOM     15  C   UNL     1     -30.976  -3.687 -10.977  0.00  0.00    +0.000 A 
ATOM     16  C   UNL     1     -32.145  -3.744 -10.228  0.00  0.00    +0.000 A 
ATOM     17  C   UNL     1     -30.263  -2.500 -10.980  0.00  0.00    +0.000 A 
ATOM     18  C   UNL     1     -32.561  -2.624  -9.514  0.00  0.00    +0.000 A 
ATOM     19  C   UNL     1     -31.778  -1.484  -9.582  0.00  0.00    +0.000 A 
ENDBRANCH   6  15
TORSDOF 2
ENDMDL
