MODEL        3
REMARK  Name = 161313
REMARK  3 active torsions:
REMARK  status: ('A' for Active; 'I' for Inactive)
REMARK    1  A    between atoms: N_1  and  C_10
REMARK    2  A    between atoms: C_4  and  C_9
REMARK    3  A    between atoms: C_14  and  C_15
REMARK                            x       y       z     vdW  Elec       q    Type
REMARK                         _______ _______ _______ _____ _____    ______ ____
ROOT
ATOM      1  N   UNL     1      21.818  34.860  15.271  0.00  0.00    +0.000 NA
ATOM      2  C   UNL     1      24.182  34.827  15.720  0.00  0.00    +0.000 A 
ATOM      3  C   UNL     1      24.402  35.792  14.752  0.00  0.00    +0.000 A 
ATOM      4  C   UNL     1      22.893  34.393  15.946  0.00  0.00    +0.000 A 
ATOM      5  C   UNL     1      23.321  36.296  14.037  0.00  0.00    +0.000 A 
ATOM      6  C   UNL     1      22.061  35.802  14.332  0.00  0.00    +0.000 A 
ENDROOT
BRANCH   2   8
ATOM      7  N   UNL     1      25.306  34.632  17.960  0.00  0.00    +0.000 NA
ATOM      8  C   UNL     1      25.350  34.252  16.523  0.00  0.00    +0.000 C 
ATOM      9  C   UNL     1      25.363  32.716  16.344  0.00  0.00    +0.000 C 
ATOM     10  C   UNL     1      26.485  32.059  17.137  0.00  0.00    +0.000 C 
ATOM     11  C   UNL     1      26.405  32.485  18.595  0.00  0.00    +0.000 C 
ATOM     12  C   UNL     1      26.407  34.007  18.716  0.00  0.00    +0.000 C 
ATOM     13  C   UNL     1      25.377  36.087  18.146  0.00  0.00    +0.000 C 
ENDBRANCH   2   8
BRANCH   6  15
ATOM     14  N   UNL     1      18.569  36.941  13.704  0.00  0.00    +0.000 NA
ATOM     15  C   UNL     1      20.893  36.280  13.630  0.00  0.00    +0.000 A 
ATOM     16  C   UNL     1      20.931  36.535  12.265  0.00  0.00    +0.000 A 
ATOM     17  C   UNL     1      19.698  36.496  14.298  0.00  0.00    +0.000 A 
ATOM     18  C   UNL     1      19.788  36.995  11.617  0.00  0.00    +0.000 A 
ATOM     19  C   UNL     1      18.644  37.180  12.374  0.00  0.00    +0.000 A 
ENDBRANCH   6  15
TORSDOF 2
ENDMDL
