MODEL        3
REMARK  Name = 161313
REMARK  3 active torsions:
REMARK  status: ('A' for Active; 'I' for Inactive)
REMARK    1  A    between atoms: N_1  and  C_10
REMARK    2  A    between atoms: C_4  and  C_9
REMARK    3  A    between atoms: C_14  and  C_15
REMARK                            x       y       z     vdW  Elec       q    Type
REMARK                         _______ _______ _______ _____ _____    ______ ____
ROOT
ATOM      1  N   UNL     1     -11.756 -22.818   9.117  0.00  0.00    +0.000 NA
ATOM      2  C   UNL     1     -10.941 -20.556   9.214  0.00  0.00    +0.000 A 
ATOM      3  C   UNL     1      -9.868 -20.952   9.992  0.00  0.00    +0.000 A 
ATOM      4  C   UNL     1     -11.852 -21.507   8.802  0.00  0.00    +0.000 A 
ATOM      5  C   UNL     1      -9.736 -22.294  10.337  0.00  0.00    +0.000 A 
ATOM      6  C   UNL     1     -10.698 -23.178   9.878  0.00  0.00    +0.000 A 
ENDROOT
BRANCH   2   8
ATOM      7  N   UNL     1     -10.681 -18.147   9.883  0.00  0.00    +0.000 NA
ATOM      8  C   UNL     1     -11.115 -19.089   8.818  0.00  0.00    +0.000 C 
ATOM      9  C   UNL     1     -10.351 -18.840   7.496  0.00  0.00    +0.000 C 
ATOM     10  C   UNL     1     -10.451 -17.390   7.045  0.00  0.00    +0.000 C 
ATOM     11  C   UNL     1     -10.008 -16.466   8.169  0.00  0.00    +0.000 C 
ATOM     12  C   UNL     1     -10.800 -16.745   9.443  0.00  0.00    +0.000 C 
ATOM     13  C   UNL     1     -11.458 -18.318  11.118  0.00  0.00    +0.000 C 
ENDBRANCH   2   8
BRANCH   6  15
ATOM     14  N   UNL     1     -10.322 -26.312  11.860  0.00  0.00    +0.000 NA
ATOM     15  C   UNL     1     -10.625 -24.585  10.195  0.00  0.00    +0.000 A 
ATOM     16  C   UNL     1     -10.775 -25.552   9.208  0.00  0.00    +0.000 A 
ATOM     17  C   UNL     1     -10.402 -25.013  11.494  0.00  0.00    +0.000 A 
ATOM     18  C   UNL     1     -10.698 -26.900   9.545  0.00  0.00    +0.000 A 
ATOM     19  C   UNL     1     -10.473 -27.224  10.873  0.00  0.00    +0.000 A 
ENDBRANCH   6  15
TORSDOF 2
ENDMDL
