MODEL        3
REMARK  Name = 161313
REMARK  3 active torsions:
REMARK  status: ('A' for Active; 'I' for Inactive)
REMARK    1  A    between atoms: N_1  and  C_10
REMARK    2  A    between atoms: C_4  and  C_9
REMARK    3  A    between atoms: C_14  and  C_15
REMARK                            x       y       z     vdW  Elec       q    Type
REMARK                         _______ _______ _______ _____ _____    ______ ____
ROOT
ATOM      1  N   UNL     1      22.135  -4.257   6.604  0.00  0.00    +0.000 NA
ATOM      2  C   UNL     1      23.095  -2.051   6.608  0.00  0.00    +0.000 A 
ATOM      3  C   UNL     1      23.227  -2.086   7.985  0.00  0.00    +0.000 A 
ATOM      4  C   UNL     1      22.552  -3.142   5.963  0.00  0.00    +0.000 A 
ATOM      5  C   UNL     1      22.810  -3.217   8.680  0.00  0.00    +0.000 A 
ATOM      6  C   UNL     1      22.275  -4.266   7.949  0.00  0.00    +0.000 A 
ENDROOT
BRANCH   2   8
ATOM      7  N   UNL     1      22.438   0.136   5.557  0.00  0.00    +0.000 NA
ATOM      8  C   UNL     1      23.545  -0.822   5.816  0.00  0.00    +0.000 C 
ATOM      9  C   UNL     1      24.713  -0.147   6.572  0.00  0.00    +0.000 C 
ATOM     10  C   UNL     1      25.204   1.106   5.860  0.00  0.00    +0.000 C 
ATOM     11  C   UNL     1      24.037   2.048   5.608  0.00  0.00    +0.000 C 
ATOM     12  C   UNL     1      22.919   1.337   4.850  0.00  0.00    +0.000 C 
ATOM     13  C   UNL     1      21.359  -0.471   4.767  0.00  0.00    +0.000 C 
ENDBRANCH   2   8
BRANCH   6  15
ATOM     14  N   UNL     1      22.361  -7.463   9.861  0.00  0.00    +0.000 NA
ATOM     15  C   UNL     1      21.822  -5.471   8.602  0.00  0.00    +0.000 A 
ATOM     16  C   UNL     1      20.476  -5.816   8.618  0.00  0.00    +0.000 A 
ATOM     17  C   UNL     1      22.717  -6.321   9.232  0.00  0.00    +0.000 A 
ATOM     18  C   UNL     1      20.070  -6.984   9.255  0.00  0.00    +0.000 A 
ATOM     19  C   UNL     1      21.042  -7.766   9.856  0.00  0.00    +0.000 A 
ENDBRANCH   6  15
TORSDOF 2
ENDMDL
