MODEL        3
REMARK  Name = 161313
REMARK  3 active torsions:
REMARK  status: ('A' for Active; 'I' for Inactive)
REMARK    1  A    between atoms: N_1  and  C_10
REMARK    2  A    between atoms: C_4  and  C_9
REMARK    3  A    between atoms: C_14  and  C_15
REMARK                            x       y       z     vdW  Elec       q    Type
REMARK                         _______ _______ _______ _____ _____    ______ ____
ROOT
ATOM      1  N   UNL     1      -0.812  16.455  20.110  0.00  0.00    +0.000 NA
ATOM      2  C   UNL     1      -0.476  14.157  19.483  0.00  0.00    +0.000 A 
ATOM      3  C   UNL     1      -0.787  13.738  20.765  0.00  0.00    +0.000 A 
ATOM      4  C   UNL     1      -0.499  15.506  19.200  0.00  0.00    +0.000 A 
ATOM      5  C   UNL     1      -1.114  14.686  21.729  0.00  0.00    +0.000 A 
ATOM      6  C   UNL     1      -1.113  16.019  21.354  0.00  0.00    +0.000 A 
ENDROOT
BRANCH   2   8
ATOM      7  N   UNL     1       1.255  12.579  18.570  0.00  0.00    +0.000 NA
ATOM      8  C   UNL     1      -0.111  13.140  18.401  0.00  0.00    +0.000 C 
ATOM      9  C   UNL     1      -1.183  12.025  18.389  0.00  0.00    +0.000 C 
ATOM     10  C   UNL     1      -0.879  10.953  17.352  0.00  0.00    +0.000 C 
ATOM     11  C   UNL     1       0.530  10.418  17.559  0.00  0.00    +0.000 C 
ATOM     12  C   UNL     1       1.548  11.555  17.550  0.00  0.00    +0.000 C 
ATOM     13  C   UNL     1       2.289  13.619  18.499  0.00  0.00    +0.000 C 
ENDBRANCH   2   8
BRANCH   6  15
ATOM     14  N   UNL     1      -0.714  18.920  23.661  0.00  0.00    +0.000 NA
ATOM     15  C   UNL     1      -1.443  17.058  22.302  0.00  0.00    +0.000 A 
ATOM     16  C   UNL     1      -2.743  17.215  22.769  0.00  0.00    +0.000 A 
ATOM     17  C   UNL     1      -0.474  17.928  22.774  0.00  0.00    +0.000 A 
ATOM     18  C   UNL     1      -3.030  18.225  23.682  0.00  0.00    +0.000 A 
ATOM     19  C   UNL     1      -1.991  19.043  24.092  0.00  0.00    +0.000 A 
ENDBRANCH   6  15
TORSDOF 2
ENDMDL
