MODEL        3
REMARK  Name = 161313
REMARK  3 active torsions:
REMARK  status: ('A' for Active; 'I' for Inactive)
REMARK    1  A    between atoms: N_1  and  C_10
REMARK    2  A    between atoms: C_4  and  C_9
REMARK    3  A    between atoms: C_14  and  C_15
REMARK                            x       y       z     vdW  Elec       q    Type
REMARK                         _______ _______ _______ _____ _____    ______ ____
ROOT
ATOM      1  N   UNL     1     -24.898-112.072 197.231  0.00  0.00    +0.000 NA
ATOM      2  C   UNL     1     -25.999-110.246 198.347  0.00  0.00    +0.000 A 
ATOM      3  C   UNL     1     -24.797-109.574 198.482  0.00  0.00    +0.000 A 
ATOM      4  C   UNL     1     -26.007-111.477 197.724  0.00  0.00    +0.000 A 
ATOM      5  C   UNL     1     -23.634-110.155 197.987  0.00  0.00    +0.000 A 
ATOM      6  C   UNL     1     -23.737-111.394 197.375  0.00  0.00    +0.000 A 
ENDROOT
BRANCH   2   8
ATOM      7  N   UNL     1     -27.593-110.039 200.279  0.00  0.00    +0.000 NA
ATOM      8  C   UNL     1     -27.295-109.635 198.880  0.00  0.00    +0.000 C 
ATOM      9  C   UNL     1     -27.210-108.097 198.741  0.00  0.00    +0.000 C 
ATOM     10  C   UNL     1     -28.456-107.406 199.277  0.00  0.00    +0.000 C 
ATOM     11  C   UNL     1     -28.725-107.859 200.704  0.00  0.00    +0.000 C 
ATOM     12  C   UNL     1     -28.812-109.381 200.783  0.00  0.00    +0.000 C 
ATOM     13  C   UNL     1     -27.759-111.493 200.408  0.00  0.00    +0.000 C 
ENDBRANCH   2   8
BRANCH   6  15
ATOM     14  N   UNL     1     -20.166-112.149 196.625  0.00  0.00    +0.000 NA
ATOM     15  C   UNL     1     -22.572-112.056 196.838  0.00  0.00    +0.000 A 
ATOM     16  C   UNL     1     -22.694-113.190 196.044  0.00  0.00    +0.000 A 
ATOM     17  C   UNL     1     -21.297-111.579 197.096  0.00  0.00    +0.000 A 
ATOM     18  C   UNL     1     -21.553-113.806 195.540  0.00  0.00    +0.000 A 
ATOM     19  C   UNL     1     -20.324-113.252 195.857  0.00  0.00    +0.000 A 
ENDBRANCH   6  15
TORSDOF 2
ENDMDL
