MODEL        3
REMARK  Name = 161313
REMARK  3 active torsions:
REMARK  status: ('A' for Active; 'I' for Inactive)
REMARK    1  A    between atoms: N_1  and  C_10
REMARK    2  A    between atoms: C_4  and  C_9
REMARK    3  A    between atoms: C_14  and  C_15
REMARK                            x       y       z     vdW  Elec       q    Type
REMARK                         _______ _______ _______ _____ _____    ______ ____
ROOT
ATOM      1  N   UNL     1      31.087  37.935  16.224  0.00  0.00    +0.000 NA
ATOM      2  C   UNL     1      32.259  36.500  14.689  0.00  0.00    +0.000 A 
ATOM      3  C   UNL     1      31.113  36.337  13.932  0.00  0.00    +0.000 A 
ATOM      4  C   UNL     1      32.206  37.297  15.814  0.00  0.00    +0.000 A 
ATOM      5  C   UNL     1      29.942  36.978  14.322  0.00  0.00    +0.000 A 
ATOM      6  C   UNL     1      29.982  37.759  15.466  0.00  0.00    +0.000 A 
ENDROOT
BRANCH   2   8
ATOM      7  N   UNL     1      34.750  36.693  14.413  0.00  0.00    +0.000 NA
ATOM      8  C   UNL     1      33.562  35.808  14.287  0.00  0.00    +0.000 C 
ATOM      9  C   UNL     1      33.721  34.523  15.132  0.00  0.00    +0.000 C 
ATOM     10  C   UNL     1      35.013  33.784  14.810  0.00  0.00    +0.000 C 
ATOM     11  C   UNL     1      36.196  34.731  14.943  0.00  0.00    +0.000 C 
ATOM     12  C   UNL     1      35.995  35.974  14.081  0.00  0.00    +0.000 C 
ATOM     13  C   UNL     1      34.649  37.876  13.550  0.00  0.00    +0.000 C 
ENDBRANCH   2   8
BRANCH   6  15
ATOM     14  N   UNL     1      27.161  38.795  17.671  0.00  0.00    +0.000 NA
ATOM     15  C   UNL     1      28.805  38.455  15.931  0.00  0.00    +0.000 A 
ATOM     16  C   UNL     1      28.184  39.418  15.145  0.00  0.00    +0.000 A 
ATOM     17  C   UNL     1      28.259  38.182  17.175  0.00  0.00    +0.000 A 
ATOM     18  C   UNL     1      27.051  40.071  15.620  0.00  0.00    +0.000 A 
ATOM     19  C   UNL     1      26.584  39.727  16.878  0.00  0.00    +0.000 A 
ENDBRANCH   6  15
TORSDOF 2
ENDMDL
