MODEL        3
REMARK  Name = 161313
REMARK  3 active torsions:
REMARK  status: ('A' for Active; 'I' for Inactive)
REMARK    1  A    between atoms: N_1  and  C_10
REMARK    2  A    between atoms: C_4  and  C_9
REMARK    3  A    between atoms: C_14  and  C_15
REMARK                            x       y       z     vdW  Elec       q    Type
REMARK                         _______ _______ _______ _____ _____    ______ ____
ROOT
ATOM      1  N   UNL     1      36.435  -9.797 -10.157  0.00  0.00    +0.000 NA
ATOM      2  C   UNL     1      36.254 -11.894  -8.989  0.00  0.00    +0.000 A 
ATOM      3  C   UNL     1      35.933 -12.547 -10.166  0.00  0.00    +0.000 A 
ATOM      4  C   UNL     1      36.495 -10.536  -9.026  0.00  0.00    +0.000 A 
ATOM      5  C   UNL     1      35.861 -11.820 -11.350  0.00  0.00    +0.000 A 
ATOM      6  C   UNL     1      36.119 -10.461 -11.292  0.00  0.00    +0.000 A 
ENDROOT
BRANCH   2   8
ATOM      7  N   UNL     1      37.589 -12.381  -6.916  0.00  0.00    +0.000 NA
ATOM      8  C   UNL     1      36.340 -12.664  -7.671  0.00  0.00    +0.000 C 
ATOM      9  C   UNL     1      35.083 -12.343  -6.828  0.00  0.00    +0.000 C 
ATOM     10  C   UNL     1      35.103 -13.053  -5.482  0.00  0.00    +0.000 C 
ATOM     11  C   UNL     1      36.401 -12.742  -4.752  0.00  0.00    +0.000 C 
ATOM     12  C   UNL     1      37.607 -13.088  -5.621  0.00  0.00    +0.000 C 
ATOM     13  C   UNL     1      38.788 -12.761  -7.674  0.00  0.00    +0.000 C 
ENDBRANCH   2   8
BRANCH   6  15
ATOM     14  N   UNL     1      34.742  -8.654 -14.247  0.00  0.00    +0.000 NA
ATOM     15  C   UNL     1      36.065  -9.643 -12.481  0.00  0.00    +0.000 A 
ATOM     16  C   UNL     1      37.214  -9.069 -13.010  0.00  0.00    +0.000 A 
ATOM     17  C   UNL     1      34.864  -9.407 -13.131  0.00  0.00    +0.000 A 
ATOM     18  C   UNL     1      37.130  -8.287 -14.158  0.00  0.00    +0.000 A 
ATOM     19  C   UNL     1      35.882  -8.112 -14.732  0.00  0.00    +0.000 A 
ENDBRANCH   6  15
TORSDOF 2
ENDMDL
