MODEL        3
REMARK  Name = 161313
REMARK  3 active torsions:
REMARK  status: ('A' for Active; 'I' for Inactive)
REMARK    1  A    between atoms: N_1  and  C_10
REMARK    2  A    between atoms: C_4  and  C_9
REMARK    3  A    between atoms: C_14  and  C_15
REMARK                            x       y       z     vdW  Elec       q    Type
REMARK                         _______ _______ _______ _____ _____    ______ ____
ROOT
ATOM      1  N   UNL     1      27.472   6.131  57.678  0.00  0.00    +0.000 NA
ATOM      2  C   UNL     1      27.801   5.850  60.045  0.00  0.00    +0.000 A 
ATOM      3  C   UNL     1      28.769   4.888  59.819  0.00  0.00    +0.000 A 
ATOM      4  C   UNL     1      27.184   6.440  58.963  0.00  0.00    +0.000 A 
ATOM      5  C   UNL     1      29.093   4.543  58.511  0.00  0.00    +0.000 A 
ATOM      6  C   UNL     1      28.421   5.188  57.486  0.00  0.00    +0.000 A 
ENDROOT
BRANCH   2   8
ATOM      7  N   UNL     1      27.455   5.109  62.422  0.00  0.00    +0.000 NA
ATOM      8  C   UNL     1      27.422   6.251  61.472  0.00  0.00    +0.000 C 
ATOM      9  C   UNL     1      28.359   7.395  61.929  0.00  0.00    +0.000 C 
ATOM     10  C   UNL     1      28.065   7.837  63.355  0.00  0.00    +0.000 C 
ATOM     11  C   UNL     1      28.098   6.634  64.287  0.00  0.00    +0.000 C 
ATOM     12  C   UNL     1      27.149   5.544  63.798  0.00  0.00    +0.000 C 
ATOM     13  C   UNL     1      26.507   4.053  62.044  0.00  0.00    +0.000 C 
ENDBRANCH   2   8
BRANCH   6  15
ATOM     14  N   UNL     1      27.983   4.894  53.796  0.00  0.00    +0.000 NA
ATOM     15  C   UNL     1      28.706   4.882  56.103  0.00  0.00    +0.000 A 
ATOM     16  C   UNL     1      29.913   4.304  55.731  0.00  0.00    +0.000 A 
ATOM     17  C   UNL     1      27.782   5.155  55.107  0.00  0.00    +0.000 A 
ATOM     18  C   UNL     1      30.158   4.020  54.391  0.00  0.00    +0.000 A 
ATOM     19  C   UNL     1      29.170   4.331  53.471  0.00  0.00    +0.000 A 
ENDBRANCH   6  15
TORSDOF 2
ENDMDL
