MODEL        3
REMARK  Name = 161313
REMARK  3 active torsions:
REMARK  status: ('A' for Active; 'I' for Inactive)
REMARK    1  A    between atoms: N_1  and  C_10
REMARK    2  A    between atoms: C_4  and  C_9
REMARK    3  A    between atoms: C_14  and  C_15
REMARK                            x       y       z     vdW  Elec       q    Type
REMARK                         _______ _______ _______ _____ _____    ______ ____
ROOT
ATOM      1  N   UNL     1      13.504 119.514  15.110  0.00  0.00    +0.000 NA
ATOM      2  C   UNL     1      12.619 120.496  17.121  0.00  0.00    +0.000 A 
ATOM      3  C   UNL     1      12.145 121.583  16.409  0.00  0.00    +0.000 A 
ATOM      4  C   UNL     1      13.285 119.496  16.444  0.00  0.00    +0.000 A 
ATOM      5  C   UNL     1      12.350 121.637  15.034  0.00  0.00    +0.000 A 
ATOM      6  C   UNL     1      13.029 120.587  14.438  0.00  0.00    +0.000 A 
ENDROOT
BRANCH   2   8
ATOM      7  N   UNL     1      12.946 121.585  19.363  0.00  0.00    +0.000 NA
ATOM      8  C   UNL     1      12.410 120.406  18.633  0.00  0.00    +0.000 C 
ATOM      9  C   UNL     1      10.901 120.206  18.912  0.00  0.00    +0.000 C 
ATOM     10  C   UNL     1      10.602 120.133  20.403  0.00  0.00    +0.000 C 
ATOM     11  C   UNL     1      11.178 121.353  21.106  0.00  0.00    +0.000 C 
ATOM     12  C   UNL     1      12.668 121.496  20.809  0.00  0.00    +0.000 C 
ATOM     13  C   UNL     1      14.394 121.736  19.173  0.00  0.00    +0.000 C 
ENDBRANCH   2   8
BRANCH   6  15
ATOM     14  N   UNL     1      12.657 121.334  10.806  0.00  0.00    +0.000 NA
ATOM     15  C   UNL     1      13.279 120.576  13.015  0.00  0.00    +0.000 A 
ATOM     16  C   UNL     1      14.325 119.837  12.477  0.00  0.00    +0.000 A 
ATOM     17  C   UNL     1      12.481 121.301  12.146  0.00  0.00    +0.000 A 
ATOM     18  C   UNL     1      14.539 119.845  11.102  0.00  0.00    +0.000 A 
ATOM     19  C   UNL     1      13.686 120.603  10.317  0.00  0.00    +0.000 A 
ENDBRANCH   6  15
TORSDOF 2
ENDMDL
