MODEL        3
REMARK  Name = 161313
REMARK  3 active torsions:
REMARK  status: ('A' for Active; 'I' for Inactive)
REMARK    1  A    between atoms: N_1  and  C_10
REMARK    2  A    between atoms: C_4  and  C_9
REMARK    3  A    between atoms: C_14  and  C_15
REMARK                            x       y       z     vdW  Elec       q    Type
REMARK                         _______ _______ _______ _____ _____    ______ ____
ROOT
ATOM      1  N   UNL     1      -0.200  57.562 -24.639  0.00  0.00    +0.000 NA
ATOM      2  C   UNL     1      -0.436  57.946 -27.003  0.00  0.00    +0.000 A 
ATOM      3  C   UNL     1      -1.274  56.851 -27.120  0.00  0.00    +0.000 A 
ATOM      4  C   UNL     1       0.073  58.265 -25.762  0.00  0.00    +0.000 A 
ATOM      5  C   UNL     1      -1.579  56.104 -25.987  0.00  0.00    +0.000 A 
ATOM      6  C   UNL     1      -1.021  56.498 -24.782  0.00  0.00    +0.000 A 
ENDROOT
BRANCH   2   8
ATOM      7  N   UNL     1      -0.738  58.304 -29.473  0.00  0.00    +0.000 NA
ATOM      8  C   UNL     1      -0.082  58.788 -28.230  0.00  0.00    +0.000 C 
ATOM      9  C   UNL     1      -0.441  60.264 -27.937  0.00  0.00    +0.000 C 
ATOM     10  C   UNL     1      -0.142  61.169 -29.123  0.00  0.00    +0.000 C 
ATOM     11  C   UNL     1      -0.825  60.629 -30.371  0.00  0.00    +0.000 C 
ATOM     12  C   UNL     1      -0.427  59.177 -30.621  0.00  0.00    +0.000 C 
ATOM     13  C   UNL     1      -0.339  56.931 -29.807  0.00  0.00    +0.000 C 
ENDBRANCH   2   8
BRANCH   6  15
ATOM     14  N   UNL     1      -1.172  55.665 -21.152  0.00  0.00    +0.000 NA
ATOM     15  C   UNL     1      -1.294  55.770 -23.564  0.00  0.00    +0.000 A 
ATOM     16  C   UNL     1      -1.911  54.525 -23.596  0.00  0.00    +0.000 A 
ATOM     17  C   UNL     1      -0.947  56.292 -22.328  0.00  0.00    +0.000 A 
ATOM     18  C   UNL     1      -2.160  53.849 -22.406  0.00  0.00    +0.000 A 
ATOM     19  C   UNL     1      -1.775  54.456 -21.222  0.00  0.00    +0.000 A 
ENDBRANCH   6  15
TORSDOF 2
ENDMDL
