MODEL        3
REMARK  Name = 161313
REMARK  3 active torsions:
REMARK  status: ('A' for Active; 'I' for Inactive)
REMARK    1  A    between atoms: N_1  and  C_10
REMARK    2  A    between atoms: C_4  and  C_9
REMARK    3  A    between atoms: C_14  and  C_15
REMARK                            x       y       z     vdW  Elec       q    Type
REMARK                         _______ _______ _______ _____ _____    ______ ____
ROOT
ATOM      1  N   UNL     1     -14.174 -10.779  -4.291  0.00  0.00    +0.000 NA
ATOM      2  C   UNL     1     -15.141  -9.692  -6.207  0.00  0.00    +0.000 A 
ATOM      3  C   UNL     1     -15.187 -10.892  -6.893  0.00  0.00    +0.000 A 
ATOM      4  C   UNL     1     -14.634  -9.677  -4.925  0.00  0.00    +0.000 A 
ATOM      5  C   UNL     1     -14.723 -12.048  -6.274  0.00  0.00    +0.000 A 
ATOM      6  C   UNL     1     -14.231 -11.938  -4.983  0.00  0.00    +0.000 A 
ENDROOT
BRANCH   2   8
ATOM      7  N   UNL     1     -14.883  -7.201  -6.429  0.00  0.00    +0.000 NA
ATOM      8  C   UNL     1     -15.643  -8.403  -6.860  0.00  0.00    +0.000 C 
ATOM      9  C   UNL     1     -15.601  -8.579  -8.397  0.00  0.00    +0.000 C 
ATOM     10  C   UNL     1     -16.062  -7.325  -9.127  0.00  0.00    +0.000 C 
ATOM     11  C   UNL     1     -15.264  -6.123  -8.645  0.00  0.00    +0.000 C 
ATOM     12  C   UNL     1     -15.350  -5.989  -7.127  0.00  0.00    +0.000 C 
ATOM     13  C   UNL     1     -14.986  -6.976  -4.981  0.00  0.00    +0.000 C 
ENDBRANCH   2   8
BRANCH   6  15
ATOM     14  N   UNL     1     -13.025 -15.406  -4.345  0.00  0.00    +0.000 NA
ATOM     15  C   UNL     1     -13.733 -13.096  -4.278  0.00  0.00    +0.000 A 
ATOM     16  C   UNL     1     -13.486 -13.051  -2.911  0.00  0.00    +0.000 A 
ATOM     17  C   UNL     1     -13.489 -14.287  -4.943  0.00  0.00    +0.000 A 
ATOM     18  C   UNL     1     -13.008 -14.184  -2.259  0.00  0.00    +0.000 A 
ATOM     19  C   UNL     1     -12.795 -15.325  -3.014  0.00  0.00    +0.000 A 
ENDBRANCH   6  15
TORSDOF 2
ENDMDL
