MODEL        3
REMARK  Name = 161313
REMARK  3 active torsions:
REMARK  status: ('A' for Active; 'I' for Inactive)
REMARK    1  A    between atoms: N_1  and  C_10
REMARK    2  A    between atoms: C_4  and  C_9
REMARK    3  A    between atoms: C_14  and  C_15
REMARK                            x       y       z     vdW  Elec       q    Type
REMARK                         _______ _______ _______ _____ _____    ______ ____
ROOT
ATOM      1  N   UNL     1      19.527  12.546   0.086  0.00  0.00    +0.000 NA
ATOM      2  C   UNL     1      19.978  14.850   0.610  0.00  0.00    +0.000 A 
ATOM      3  C   UNL     1      21.225  14.517   1.106  0.00  0.00    +0.000 A 
ATOM      4  C   UNL     1      19.169  13.849   0.115  0.00  0.00    +0.000 A 
ATOM      5  C   UNL     1      21.629  13.186   1.093  0.00  0.00    +0.000 A 
ATOM      6  C   UNL     1      20.751  12.247   0.576  0.00  0.00    +0.000 A 
ENDROOT
BRANCH   2   8
ATOM      7  N   UNL     1      19.640  16.959  -0.717  0.00  0.00    +0.000 NA
ATOM      8  C   UNL     1      19.504  16.305   0.611  0.00  0.00    +0.000 C 
ATOM      9  C   UNL     1      18.043  16.348   1.117  0.00  0.00    +0.000 C 
ATOM     10  C   UNL     1      17.484  17.764   1.124  0.00  0.00    +0.000 C 
ATOM     11  C   UNL     1      17.655  18.394  -0.250  0.00  0.00    +0.000 C 
ATOM     12  C   UNL     1      19.114  18.336  -0.695  0.00  0.00    +0.000 C 
ATOM     13  C   UNL     1      21.037  16.999  -1.169  0.00  0.00    +0.000 C 
ENDBRANCH   2   8
BRANCH   6  15
ATOM     14  N   UNL     1      20.841   8.622   1.437  0.00  0.00    +0.000 NA
ATOM     15  C   UNL     1      21.103  10.847   0.529  0.00  0.00    +0.000 A 
ATOM     16  C   UNL     1      22.001  10.365  -0.415  0.00  0.00    +0.000 A 
ATOM     17  C   UNL     1      20.556   9.944   1.425  0.00  0.00    +0.000 A 
ATOM     18  C   UNL     1      22.321   9.011  -0.435  0.00  0.00    +0.000 A 
ATOM     19  C   UNL     1      21.719   8.189   0.503  0.00  0.00    +0.000 A 
ENDBRANCH   6  15
TORSDOF 2
ENDMDL
