MODEL        3
REMARK  Name = 161313
REMARK  3 active torsions:
REMARK  status: ('A' for Active; 'I' for Inactive)
REMARK    1  A    between atoms: N_1  and  C_10
REMARK    2  A    between atoms: C_4  and  C_9
REMARK    3  A    between atoms: C_14  and  C_15
REMARK                            x       y       z     vdW  Elec       q    Type
REMARK                         _______ _______ _______ _____ _____    ______ ____
ROOT
ATOM      1  N   UNL     1      14.874  19.693  20.232  0.00  0.00    +0.000 NA
ATOM      2  C   UNL     1      14.728  17.524  19.200  0.00  0.00    +0.000 A 
ATOM      3  C   UNL     1      15.650  17.011  20.094  0.00  0.00    +0.000 A 
ATOM      4  C   UNL     1      14.371  18.853  19.300  0.00  0.00    +0.000 A 
ATOM      5  C   UNL     1      16.190  17.845  21.068  0.00  0.00    +0.000 A 
ATOM      6  C   UNL     1      15.772  19.166  21.094  0.00  0.00    +0.000 A 
ENDROOT
BRANCH   2   8
ATOM      7  N   UNL     1      13.101  15.688  18.652  0.00  0.00    +0.000 NA
ATOM      8  C   UNL     1      14.116  16.634  18.118  0.00  0.00    +0.000 C 
ATOM      9  C   UNL     1      13.522  17.537  17.012  0.00  0.00    +0.000 C 
ATOM     10  C   UNL     1      12.866  16.725  15.903  0.00  0.00    +0.000 C 
ATOM     11  C   UNL     1      11.845  15.767  16.499  0.00  0.00    +0.000 C 
ATOM     12  C   UNL     1      12.485  14.893  17.573  0.00  0.00    +0.000 C 
ATOM     13  C   UNL     1      13.674  14.769  19.643  0.00  0.00    +0.000 C 
ENDBRANCH   2   8
BRANCH   6  15
ATOM     14  N   UNL     1      18.183  20.931  23.322  0.00  0.00    +0.000 NA
ATOM     15  C   UNL     1      16.289  20.089  22.077  0.00  0.00    +0.000 A 
ATOM     16  C   UNL     1      15.454  20.996  22.718  0.00  0.00    +0.000 A 
ATOM     17  C   UNL     1      17.634  20.096  22.412  0.00  0.00    +0.000 A 
ATOM     18  C   UNL     1      15.982  21.872  23.661  0.00  0.00    +0.000 A 
ATOM     19  C   UNL     1      17.340  21.801  23.925  0.00  0.00    +0.000 A 
ENDBRANCH   6  15
TORSDOF 2
ENDMDL
