MODEL        3
REMARK  Name = 161313
REMARK  3 active torsions:
REMARK  status: ('A' for Active; 'I' for Inactive)
REMARK    1  A    between atoms: N_1  and  C_10
REMARK    2  A    between atoms: C_4  and  C_9
REMARK    3  A    between atoms: C_14  and  C_15
REMARK                            x       y       z     vdW  Elec       q    Type
REMARK                         _______ _______ _______ _____ _____    ______ ____
ROOT
ATOM      1  N   UNL     1     -47.492  36.880 -10.195  0.00  0.00    +0.000 NA
ATOM      2  C   UNL     1     -45.818  36.973  -8.468  0.00  0.00    +0.000 A 
ATOM      3  C   UNL     1     -46.345  35.846  -7.865  0.00  0.00    +0.000 A 
ATOM      4  C   UNL     1     -46.412  37.453  -9.617  0.00  0.00    +0.000 A 
ATOM      5  C   UNL     1     -47.456  35.228  -8.430  0.00  0.00    +0.000 A 
ATOM      6  C   UNL     1     -47.986  35.779  -9.585  0.00  0.00    +0.000 A 
ENDROOT
BRANCH   2   8
ATOM      7  N   UNL     1     -43.460  36.751  -7.625  0.00  0.00    +0.000 NA
ATOM      8  C   UNL     1     -44.598  37.676  -7.871  0.00  0.00    +0.000 C 
ATOM      9  C   UNL     1     -44.190  38.838  -8.807  0.00  0.00    +0.000 C 
ATOM     10  C   UNL     1     -42.961  39.577  -8.296  0.00  0.00    +0.000 C 
ATOM     11  C   UNL     1     -41.830  38.590  -8.050  0.00  0.00    +0.000 C 
ATOM     12  C   UNL     1     -42.281  37.472  -7.112  0.00  0.00    +0.000 C 
ATOM     13  C   UNL     1     -43.811  35.690  -6.672  0.00  0.00    +0.000 C 
ENDBRANCH   2   8
BRANCH   6  15
ATOM     14  N   UNL     1     -51.529  34.832 -10.252  0.00  0.00    +0.000 NA
ATOM     15  C   UNL     1     -49.138  35.191 -10.228  0.00  0.00    +0.000 A 
ATOM     16  C   UNL     1     -49.006  34.442 -11.391  0.00  0.00    +0.000 A 
ATOM     17  C   UNL     1     -50.410  35.355  -9.703  0.00  0.00    +0.000 A 
ATOM     18  C   UNL     1     -50.134  33.887 -11.986  0.00  0.00    +0.000 A 
ATOM     19  C   UNL     1     -51.361  34.109 -11.383  0.00  0.00    +0.000 A 
ENDBRANCH   6  15
TORSDOF 2
ENDMDL
