MODEL        3
REMARK  Name = 161313
REMARK  3 active torsions:
REMARK  status: ('A' for Active; 'I' for Inactive)
REMARK    1  A    between atoms: N_1  and  C_10
REMARK    2  A    between atoms: C_4  and  C_9
REMARK    3  A    between atoms: C_14  and  C_15
REMARK                            x       y       z     vdW  Elec       q    Type
REMARK                         _______ _______ _______ _____ _____    ______ ____
ROOT
ATOM      1  N   UNL     1      -8.199  -6.945 -24.946  0.00  0.00    +0.000 NA
ATOM      2  C   UNL     1      -8.876  -5.397 -23.233  0.00  0.00    +0.000 A 
ATOM      3  C   UNL     1      -7.559  -5.046 -22.997  0.00  0.00    +0.000 A 
ATOM      4  C   UNL     1      -9.151  -6.338 -24.203  0.00  0.00    +0.000 A 
ATOM      5  C   UNL     1      -6.551  -5.649 -23.742  0.00  0.00    +0.000 A 
ATOM      6  C   UNL     1      -6.920  -6.583 -24.696  0.00  0.00    +0.000 A 
ENDROOT
BRANCH   2   8
ATOM      7  N   UNL     1     -10.358  -3.391 -22.915  0.00  0.00    +0.000 NA
ATOM      8  C   UNL     1     -10.007  -4.752 -22.430  0.00  0.00    +0.000 C 
ATOM      9  C   UNL     1     -11.232  -5.696 -22.457  0.00  0.00    +0.000 C 
ATOM     10  C   UNL     1     -12.418  -5.114 -21.700  0.00  0.00    +0.000 C 
ATOM     11  C   UNL     1     -12.731  -3.721 -22.223  0.00  0.00    +0.000 C 
ATOM     12  C   UNL     1     -11.495  -2.828 -22.163  0.00  0.00    +0.000 C 
ATOM     13  C   UNL     1      -9.225  -2.463 -22.815  0.00  0.00    +0.000 C 
ENDBRANCH   2   8
BRANCH   6  15
ATOM     14  N   UNL     1      -5.041  -7.725 -27.705  0.00  0.00    +0.000 NA
ATOM     15  C   UNL     1      -5.928  -7.249 -25.507  0.00  0.00    +0.000 A 
ATOM     16  C   UNL     1      -4.936  -8.031 -24.928  0.00  0.00    +0.000 A 
ATOM     17  C   UNL     1      -5.937  -7.129 -26.887  0.00  0.00    +0.000 A 
ATOM     18  C   UNL     1      -3.994  -8.661 -25.737  0.00  0.00    +0.000 A 
ATOM     19  C   UNL     1      -4.089  -8.477 -27.106  0.00  0.00    +0.000 A 
ENDBRANCH   6  15
TORSDOF 2
ENDMDL
