MODEL        5
REMARK  Name = 5280863
REMARK  5 active torsions:
REMARK  status: ('A' for Active; 'I' for Inactive)
REMARK    1  A    between atoms: O_2  and  C_11
REMARK    2  A    between atoms: O_3  and  C_13
REMARK    3  A    between atoms: O_5  and  C_15
REMARK    4  A    between atoms: O_6  and  C_21
REMARK    5  A    between atoms: C_9  and  C_12
REMARK                            x       y       z     vdW  Elec       q    Type
REMARK                         _______ _______ _______ _____ _____    ______ ____
ROOT
ATOM      1  O   UNL     1      22.741   9.490  -0.402  0.00  0.00    +0.000 OA
ATOM      2  O   UNL     1      24.716   5.968  -0.948  0.00  0.00    +0.000 OA
ATOM      3  C   UNL     1      22.814   7.081  -0.111  0.00  0.00    +0.000 A 
ATOM      4  C   UNL     1      22.191   8.317   0.046  0.00  0.00    +0.000 A 
ATOM      5  C   UNL     1      23.966   9.441  -1.050  0.00  0.00    +0.000 A 
ATOM      6  C   UNL     1      24.119   7.023  -0.786  0.00  0.00    +0.000 A 
ATOM      7  C   UNL     1      24.674   8.315  -1.258  0.00  0.00    +0.000 A 
ATOM      8  C   UNL     1      22.204   5.918   0.367  0.00  0.00    +0.000 A 
ATOM      9  C   UNL     1      20.952   8.399   0.685  0.00  0.00    +0.000 A 
ATOM     10  C   UNL     1      20.341   7.241   1.163  0.00  0.00    +0.000 A 
ATOM     11  C   UNL     1      20.966   6.002   1.005  0.00  0.00    +0.000 A 
ENDROOT
BRANCH   5  12
ATOM     12  C   UNL     1      24.443  10.767  -1.478  0.00  0.00    +0.000 A 
ATOM     13  C   UNL     1      24.398  11.844  -0.593  0.00  0.00    +0.000 A 
ATOM     14  C   UNL     1      24.943  10.945  -2.769  0.00  0.00    +0.000 A 
ATOM     15  C   UNL     1      24.851  13.100  -0.999  0.00  0.00    +0.000 A 
ATOM     16  C   UNL     1      25.395  12.200  -3.174  0.00  0.00    +0.000 A 
ATOM     17  C   UNL     1      25.349  13.278  -2.289  0.00  0.00    +0.000 A 
BRANCH  17  18
ATOM     18  O   UNL     1      25.792  14.503  -2.685  0.00  0.00    +0.000 OA
ATOM     19  H   UNL     1      26.764  14.503  -2.681  0.00  0.00    +0.000 HD
ENDBRANCH  17  18
ENDBRANCH   5  12
BRANCH   7  20
ATOM     20  O   UNL     1      25.906   8.304  -1.877  0.00  0.00    +0.000 OA
ATOM     21  H   UNL     1      26.287   7.413  -1.837  0.00  0.00    +0.000 HD
ENDBRANCH   7  20
BRANCH   8  22
ATOM     22  O   UNL     1      22.771   4.686   0.239  0.00  0.00    +0.000 OA
ATOM     23  H   UNL     1      23.705   4.712   0.498  0.00  0.00    +0.000 HD
ENDBRANCH   8  22
BRANCH  10  24
ATOM     24  O   UNL     1      19.133   7.317   1.787  0.00  0.00    +0.000 OA
ATOM     25  H   UNL     1      19.027   8.207   2.162  0.00  0.00    +0.000 HD
ENDBRANCH  10  24
TORSDOF 5
ENDMDL
