MODEL        4
REMARK  Name = 5280343
REMARK  6 active torsions:
REMARK  status: ('A' for Active; 'I' for Inactive)
REMARK    1  A    between atoms: O_2  and  C_12
REMARK    2  A    between atoms: O_3  and  C_14
REMARK    3  A    between atoms: O_5  and  C_16
REMARK    4  A    between atoms: O_6  and  C_20
REMARK    5  A    between atoms: O_7  and  C_22
REMARK    6  A    between atoms: C_10  and  C_11
REMARK                            x       y       z     vdW  Elec       q    Type
REMARK                         _______ _______ _______ _____ _____    ______ ____
ROOT
ATOM      1  O   UNL     1     -47.180  34.654 -10.689  0.00  0.00    +0.000 OA
ATOM      2  O   UNL     1     -51.187  34.251 -10.067  0.00  0.00    +0.000 OA
ATOM      3  C   UNL     1     -49.408  34.378 -11.610  0.00  0.00    +0.000 A 
ATOM      4  C   UNL     1     -48.029  34.520 -11.756  0.00  0.00    +0.000 A 
ATOM      5  C   UNL     1     -47.714  34.633  -9.410  0.00  0.00    +0.000 A 
ATOM      6  C   UNL     1     -49.026  34.510  -9.134  0.00  0.00    +0.000 A 
ATOM      7  C   UNL     1     -49.983  34.368 -10.257  0.00  0.00    +0.000 A 
ATOM      8  C   UNL     1     -50.226  34.247 -12.735  0.00  0.00    +0.000 A 
ATOM      9  C   UNL     1     -47.460  34.535 -13.029  0.00  0.00    +0.000 A 
ATOM     10  C   UNL     1     -48.274  34.404 -14.156  0.00  0.00    +0.000 A 
ATOM     11  C   UNL     1     -49.654  34.261 -14.007  0.00  0.00    +0.000 A 
ENDROOT
BRANCH   5  12
ATOM     12  C   UNL     1     -46.694  34.785  -8.358  0.00  0.00    +0.000 A 
ATOM     13  C   UNL     1     -46.273  36.057  -7.973  0.00  0.00    +0.000 A 
ATOM     14  C   UNL     1     -46.151  33.655  -7.746  0.00  0.00    +0.000 A 
ATOM     15  C   UNL     1     -45.308  36.201  -6.976  0.00  0.00    +0.000 A 
ATOM     16  C   UNL     1     -45.185  33.798  -6.749  0.00  0.00    +0.000 A 
ATOM     17  C   UNL     1     -44.763  35.071  -6.364  0.00  0.00    +0.000 A 
BRANCH  15  18
ATOM     18  O   UNL     1     -44.902  37.448  -6.609  0.00  0.00    +0.000 OA
ATOM     19  H   UNL     1     -44.517  37.419  -5.718  0.00  0.00    +0.000 HD
ENDBRANCH  15  18
BRANCH  17  20
ATOM     20  O   UNL     1     -43.822  35.198  -5.388  0.00  0.00    +0.000 OA
ATOM     21  H   UNL     1     -43.752  36.128  -5.119  0.00  0.00    +0.000 HD
ENDBRANCH  17  20
ENDBRANCH   5  12
BRANCH   6  22
ATOM     22  O   UNL     1     -49.529  34.525  -7.851  0.00  0.00    +0.000 OA
ATOM     23  H   UNL     1     -50.494  34.429  -7.874  0.00  0.00    +0.000 HD
ENDBRANCH   6  22
BRANCH   8  24
ATOM     24  O   UNL     1     -51.578  34.105 -12.648  0.00  0.00    +0.000 OA
ATOM     25  H   UNL     1     -51.808  33.426 -11.995  0.00  0.00    +0.000 HD
ENDBRANCH   8  24
BRANCH  10  26
ATOM     26  O   UNL     1     -47.721  34.418 -15.398  0.00  0.00    +0.000 OA
ATOM     27  H   UNL     1     -47.175  35.217 -15.493  0.00  0.00    +0.000 HD
ENDBRANCH  10  26
TORSDOF 6
ENDMDL
