MODEL        5
REMARK  Name = 5280863
REMARK  5 active torsions:
REMARK  status: ('A' for Active; 'I' for Inactive)
REMARK    1  A    between atoms: O_2  and  C_11
REMARK    2  A    between atoms: O_3  and  C_13
REMARK    3  A    between atoms: O_5  and  C_15
REMARK    4  A    between atoms: O_6  and  C_21
REMARK    5  A    between atoms: C_9  and  C_12
REMARK                            x       y       z     vdW  Elec       q    Type
REMARK                         _______ _______ _______ _____ _____    ______ ____
ROOT
ATOM      1  O   UNL     1      21.069  -1.127   5.868  0.00  0.00    +0.000 OA
ATOM      2  O   UNL     1      24.887  -2.450   5.343  0.00  0.00    +0.000 OA
ATOM      3  C   UNL     1      23.084  -1.176   4.515  0.00  0.00    +0.000 A 
ATOM      4  C   UNL     1      21.776  -0.760   4.753  0.00  0.00    +0.000 A 
ATOM      5  C   UNL     1      21.688  -1.938   6.806  0.00  0.00    +0.000 A 
ATOM      6  C   UNL     1      23.742  -2.048   5.500  0.00  0.00    +0.000 A 
ATOM      7  C   UNL     1      22.941  -2.415   6.693  0.00  0.00    +0.000 A 
ATOM      8  C   UNL     1      23.755  -0.770   3.359  0.00  0.00    +0.000 A 
ATOM      9  C   UNL     1      21.128   0.067   3.832  0.00  0.00    +0.000 A 
ATOM     10  C   UNL     1      21.794   0.474   2.677  0.00  0.00    +0.000 A 
ATOM     11  C   UNL     1      23.105   0.057   2.441  0.00  0.00    +0.000 A 
ENDROOT
BRANCH   5  12
ATOM     12  C   UNL     1      20.820  -2.257   7.953  0.00  0.00    +0.000 A 
ATOM     13  C   UNL     1      20.449  -1.254   8.848  0.00  0.00    +0.000 A 
ATOM     14  C   UNL     1      20.367  -3.563   8.142  0.00  0.00    +0.000 A 
ATOM     15  C   UNL     1      19.626  -1.557   9.933  0.00  0.00    +0.000 A 
ATOM     16  C   UNL     1      19.545  -3.866   9.228  0.00  0.00    +0.000 A 
ATOM     17  C   UNL     1      19.175  -2.862  10.124  0.00  0.00    +0.000 A 
BRANCH  17  18
ATOM     18  O   UNL     1      18.371  -3.157  11.182  0.00  0.00    +0.000 OA
ATOM     19  H   UNL     1      18.928  -3.413  11.937  0.00  0.00    +0.000 HD
ENDBRANCH  17  18
ENDBRANCH   5  12
BRANCH   7  20
ATOM     20  O   UNL     1      23.517  -3.248   7.629  0.00  0.00    +0.000 OA
ATOM     21  H   UNL     1      24.389  -3.539   7.318  0.00  0.00    +0.000 HD
ENDBRANCH   7  20
BRANCH   8  22
ATOM     22  O   UNL     1      25.033  -1.149   3.080  0.00  0.00    +0.000 OA
ATOM     23  H   UNL     1      25.197  -2.051   3.394  0.00  0.00    +0.000 HD
ENDBRANCH   8  22
BRANCH  10  24
ATOM     24  O   UNL     1      21.166   1.280   1.777  0.00  0.00    +0.000 OA
ATOM     25  H   UNL     1      20.598   1.905   2.258  0.00  0.00    +0.000 HD
ENDBRANCH  10  24
TORSDOF 5
ENDMDL
