MODEL        4
REMARK  Name = 5280343
REMARK  6 active torsions:
REMARK  status: ('A' for Active; 'I' for Inactive)
REMARK    1  A    between atoms: O_2  and  C_12
REMARK    2  A    between atoms: O_3  and  C_14
REMARK    3  A    between atoms: O_5  and  C_16
REMARK    4  A    between atoms: O_6  and  C_20
REMARK    5  A    between atoms: O_7  and  C_22
REMARK    6  A    between atoms: C_10  and  C_11
REMARK                            x       y       z     vdW  Elec       q    Type
REMARK                         _______ _______ _______ _____ _____    ______ ____
ROOT
ATOM      1  O   UNL     1     -29.903  -5.423 -12.764  0.00  0.00    +0.000 OA
ATOM      2  O   UNL     1     -33.211  -7.126 -11.099  0.00  0.00    +0.000 OA
ATOM      3  C   UNL     1     -31.799  -5.243 -11.259  0.00  0.00    +0.000 A 
ATOM      4  C   UNL     1     -30.657  -4.719 -11.862  0.00  0.00    +0.000 A 
ATOM      5  C   UNL     1     -30.302  -6.708 -13.100  0.00  0.00    +0.000 A 
ATOM      6  C   UNL     1     -31.377  -7.332 -12.585  0.00  0.00    +0.000 A 
ATOM      7  C   UNL     1     -32.220  -6.611 -11.601  0.00  0.00    +0.000 A 
ATOM      8  C   UNL     1     -32.528  -4.479 -10.345  0.00  0.00    +0.000 A 
ATOM      9  C   UNL     1     -30.236  -3.426 -11.553  0.00  0.00    +0.000 A 
ATOM     10  C   UNL     1     -30.962  -2.658 -10.640  0.00  0.00    +0.000 A 
ATOM     11  C   UNL     1     -32.105  -3.185 -10.038  0.00  0.00    +0.000 A 
ENDROOT
BRANCH   5  12
ATOM     12  C   UNL     1     -29.406  -7.351 -14.077  0.00  0.00    +0.000 A 
ATOM     13  C   UNL     1     -28.023  -7.235 -13.939  0.00  0.00    +0.000 A 
ATOM     14  C   UNL     1     -29.942  -8.077 -15.142  0.00  0.00    +0.000 A 
ATOM     15  C   UNL     1     -27.176  -7.845 -14.864  0.00  0.00    +0.000 A 
ATOM     16  C   UNL     1     -29.095  -8.686 -16.067  0.00  0.00    +0.000 A 
ATOM     17  C   UNL     1     -27.712  -8.570 -15.929  0.00  0.00    +0.000 A 
BRANCH  15  18
ATOM     18  O   UNL     1     -25.827  -7.724 -14.720  0.00  0.00    +0.000 OA
ATOM     19  H   UNL     1     -25.384  -7.990 -15.542  0.00  0.00    +0.000 HD
ENDBRANCH  15  18
BRANCH  17  20
ATOM     20  O   UNL     1     -26.894  -9.172 -16.838  0.00  0.00    +0.000 OA
ATOM     21  H   UNL     1     -25.986  -8.850 -16.724  0.00  0.00    +0.000 HD
ENDBRANCH  17  20
ENDBRANCH   5  12
BRANCH   6  22
ATOM     22  O   UNL     1     -31.728  -8.623 -12.915  0.00  0.00    +0.000 OA
ATOM     23  H   UNL     1     -32.526  -8.882 -12.429  0.00  0.00    +0.000 HD
ENDBRANCH   6  22
BRANCH   8  24
ATOM     24  O   UNL     1     -33.650  -4.944  -9.728  0.00  0.00    +0.000 OA
ATOM     25  H   UNL     1     -33.509  -5.844  -9.398  0.00  0.00    +0.000 HD
ENDBRANCH   8  24
BRANCH  10  26
ATOM     26  O   UNL     1     -30.553  -1.397 -10.337  0.00  0.00    +0.000 OA
ATOM     27  H   UNL     1     -30.905  -0.782 -11.004  0.00  0.00    +0.000 HD
ENDBRANCH  10  26
TORSDOF 6
ENDMDL
