MODEL        4
REMARK  Name = 5280343
REMARK  6 active torsions:
REMARK  status: ('A' for Active; 'I' for Inactive)
REMARK    1  A    between atoms: O_2  and  C_12
REMARK    2  A    between atoms: O_3  and  C_14
REMARK    3  A    between atoms: O_5  and  C_16
REMARK    4  A    between atoms: O_6  and  C_20
REMARK    5  A    between atoms: O_7  and  C_22
REMARK    6  A    between atoms: C_10  and  C_11
REMARK                            x       y       z     vdW  Elec       q    Type
REMARK                         _______ _______ _______ _____ _____    ______ ____
ROOT
ATOM      1  O   UNL     1      60.543  32.133  75.471  0.00  0.00    +0.000 OA
ATOM      2  O   UNL     1      57.496  34.838  75.544  0.00  0.00    +0.000 OA
ATOM      3  C   UNL     1      59.082  33.650  74.265  0.00  0.00    +0.000 A 
ATOM      4  C   UNL     1      60.119  32.720  74.307  0.00  0.00    +0.000 A 
ATOM      5  C   UNL     1      59.905  32.471  76.654  0.00  0.00    +0.000 A 
ATOM      6  C   UNL     1      58.898  33.359  76.751  0.00  0.00    +0.000 A 
ATOM      7  C   UNL     1      58.409  34.023  75.519  0.00  0.00    +0.000 A 
ATOM      8  C   UNL     1      58.693  34.217  73.049  0.00  0.00    +0.000 A 
ATOM      9  C   UNL     1      60.775  32.351  73.133  0.00  0.00    +0.000 A 
ATOM     10  C   UNL     1      60.388  32.915  71.916  0.00  0.00    +0.000 A 
ATOM     11  C   UNL     1      59.349  33.847  71.875  0.00  0.00    +0.000 A 
ENDROOT
BRANCH   5  12
ATOM     12  C   UNL     1      60.457  31.770  77.826  0.00  0.00    +0.000 A 
ATOM     13  C   UNL     1      61.553  32.301  78.505  0.00  0.00    +0.000 A 
ATOM     14  C   UNL     1      59.883  30.574  78.258  0.00  0.00    +0.000 A 
ATOM     15  C   UNL     1      62.075  31.638  79.616  0.00  0.00    +0.000 A 
ATOM     16  C   UNL     1      60.405  29.910  79.368  0.00  0.00    +0.000 A 
ATOM     17  C   UNL     1      61.501  30.441  80.046  0.00  0.00    +0.000 A 
BRANCH  15  18
ATOM     18  O   UNL     1      63.147  32.165  80.270  0.00  0.00    +0.000 OA
ATOM     19  H   UNL     1      63.388  31.595  81.018  0.00  0.00    +0.000 HD
ENDBRANCH  15  18
BRANCH  17  20
ATOM     20  O   UNL     1      62.001  29.785  81.131  0.00  0.00    +0.000 OA
ATOM     21  H   UNL     1      62.858  30.167  81.378  0.00  0.00    +0.000 HD
ENDBRANCH  17  20
ENDBRANCH   5  12
BRANCH   6  22
ATOM     22  O   UNL     1      58.306  33.698  77.948  0.00  0.00    +0.000 OA
ATOM     23  H   UNL     1      57.622  34.370  77.799  0.00  0.00    +0.000 HD
ENDBRANCH   6  22
BRANCH   8  24
ATOM     24  O   UNL     1      57.686  35.131  72.953  0.00  0.00    +0.000 OA
ATOM     25  H   UNL     1      56.915  34.843  73.465  0.00  0.00    +0.000 HD
ENDBRANCH   8  24
BRANCH  10  26
ATOM     26  O   UNL     1      61.026  32.558  70.768  0.00  0.00    +0.000 OA
ATOM     27  H   UNL     1      61.058  33.325  70.172  0.00  0.00    +0.000 HD
ENDBRANCH  10  26
TORSDOF 6
ENDMDL
