MODEL        4
REMARK  Name = 5280343
REMARK  6 active torsions:
REMARK  status: ('A' for Active; 'I' for Inactive)
REMARK    1  A    between atoms: O_2  and  C_12
REMARK    2  A    between atoms: O_3  and  C_14
REMARK    3  A    between atoms: O_5  and  C_16
REMARK    4  A    between atoms: O_6  and  C_20
REMARK    5  A    between atoms: O_7  and  C_22
REMARK    6  A    between atoms: C_10  and  C_11
REMARK                            x       y       z     vdW  Elec       q    Type
REMARK                         _______ _______ _______ _____ _____    ______ ____
ROOT
ATOM      1  O   UNL     1      -7.700  -6.581 -25.022  0.00  0.00    +0.000 OA
ATOM      2  O   UNL     1      -8.251  -2.873 -23.424  0.00  0.00    +0.000 OA
ATOM      3  C   UNL     1      -9.067  -5.068 -23.706  0.00  0.00    +0.000 A 
ATOM      4  C   UNL     1      -8.821  -6.314 -24.280  0.00  0.00    +0.000 A 
ATOM      5  C   UNL     1      -6.766  -5.573 -25.198  0.00  0.00    +0.000 A 
ATOM      6  C   UNL     1      -6.887  -4.326 -24.705  0.00  0.00    +0.000 A 
ATOM      7  C   UNL     1      -8.086  -3.989 -23.900  0.00  0.00    +0.000 A 
ATOM      8  C   UNL     1     -10.228  -4.852 -22.960  0.00  0.00    +0.000 A 
ATOM      9  C   UNL     1      -9.737  -7.352 -24.113  0.00  0.00    +0.000 A 
ATOM     10  C   UNL     1     -10.898  -7.141 -23.368  0.00  0.00    +0.000 A 
ATOM     11  C   UNL     1     -11.142  -5.892 -22.793  0.00  0.00    +0.000 A 
ENDROOT
BRANCH   5  12
ATOM     12  C   UNL     1      -5.612  -5.993 -26.012  0.00  0.00    +0.000 A 
ATOM     13  C   UNL     1      -5.637  -7.218 -26.678  0.00  0.00    +0.000 A 
ATOM     14  C   UNL     1      -4.495  -5.164 -26.118  0.00  0.00    +0.000 A 
ATOM     15  C   UNL     1      -4.545  -7.615 -27.451  0.00  0.00    +0.000 A 
ATOM     16  C   UNL     1      -3.403  -5.561 -26.890  0.00  0.00    +0.000 A 
ATOM     17  C   UNL     1      -3.427  -6.786 -27.555  0.00  0.00    +0.000 A 
BRANCH  15  18
ATOM     18  O   UNL     1      -4.579  -8.814 -28.095  0.00  0.00    +0.000 OA
ATOM     19  H   UNL     1      -5.232  -8.782 -28.813  0.00  0.00    +0.000 HD
ENDBRANCH  15  18
BRANCH  17  20
ATOM     20  O   UNL     1      -2.356  -7.162 -28.308  0.00  0.00    +0.000 OA
ATOM     21  H   UNL     1      -2.533  -8.020 -28.726  0.00  0.00    +0.000 HD
ENDBRANCH  17  20
ENDBRANCH   5  12
BRANCH   6  22
ATOM     22  O   UNL     1      -5.955  -3.336 -24.925  0.00  0.00    +0.000 OA
ATOM     23  H   UNL     1      -6.332  -2.472 -24.698  0.00  0.00    +0.000 HD
ENDBRANCH   6  22
BRANCH   8  24
ATOM     24  O   UNL     1     -10.516  -3.654 -22.378  0.00  0.00    +0.000 OA
ATOM     25  H   UNL     1     -10.266  -2.923 -22.964  0.00  0.00    +0.000 HD
ENDBRANCH   8  24
BRANCH  10  26
ATOM     26  O   UNL     1     -11.793  -8.152 -23.203  0.00  0.00    +0.000 OA
ATOM     27  H   UNL     1     -11.309  -8.986 -23.079  0.00  0.00    +0.000 HD
ENDBRANCH  10  26
TORSDOF 6
ENDMDL
