MODEL        5
REMARK  Name = 5280863
REMARK  5 active torsions:
REMARK  status: ('A' for Active; 'I' for Inactive)
REMARK    1  A    between atoms: O_2  and  C_11
REMARK    2  A    between atoms: O_3  and  C_13
REMARK    3  A    between atoms: O_5  and  C_15
REMARK    4  A    between atoms: O_6  and  C_21
REMARK    5  A    between atoms: C_9  and  C_12
REMARK                            x       y       z     vdW  Elec       q    Type
REMARK                         _______ _______ _______ _____ _____    ______ ____
ROOT
ATOM      1  O   UNL     1     -30.378-109.641 196.930  0.00  0.00    +0.000 OA
ATOM      2  O   UNL     1     -30.065-111.730 193.446  0.00  0.00    +0.000 OA
ATOM      3  C   UNL     1     -31.308-110.222 194.764  0.00  0.00    +0.000 A 
ATOM      4  C   UNL     1     -31.356-109.536 195.976  0.00  0.00    +0.000 A 
ATOM      5  C   UNL     1     -29.287-110.456 196.671  0.00  0.00    +0.000 A 
ATOM      6  C   UNL     1     -30.160-111.099 194.489  0.00  0.00    +0.000 A 
ATOM      7  C   UNL     1     -29.124-111.178 195.547  0.00  0.00    +0.000 A 
ATOM      8  C   UNL     1     -32.336-110.076 193.829  0.00  0.00    +0.000 A 
ATOM      9  C   UNL     1     -32.437-108.699 196.262  0.00  0.00    +0.000 A 
ATOM     10  C   UNL     1     -33.465-108.551 195.331  0.00  0.00    +0.000 A 
ATOM     11  C   UNL     1     -33.414-109.238 194.117  0.00  0.00    +0.000 A 
ENDROOT
BRANCH   5  12
ATOM     12  C   UNL     1     -28.312-110.480 197.776  0.00  0.00    +0.000 A 
ATOM     13  C   UNL     1     -27.824-111.698 198.250  0.00  0.00    +0.000 A 
ATOM     14  C   UNL     1     -27.876-109.284 198.347  0.00  0.00    +0.000 A 
ATOM     15  C   UNL     1     -26.901-111.720 199.295  0.00  0.00    +0.000 A 
ATOM     16  C   UNL     1     -26.953-109.307 199.392  0.00  0.00    +0.000 A 
ATOM     17  C   UNL     1     -26.466-110.526 199.867  0.00  0.00    +0.000 A 
BRANCH  17  18
ATOM     18  O   UNL     1     -25.564-110.547 200.887  0.00  0.00    +0.000 OA
ATOM     19  H   UNL     1     -24.814-111.110 200.631  0.00  0.00    +0.000 HD
ENDBRANCH  17  18
ENDBRANCH   5  12
BRANCH   7  20
ATOM     20  O   UNL     1     -28.042-112.006 195.335  0.00  0.00    +0.000 OA
ATOM     21  H   UNL     1     -28.048-112.327 194.419  0.00  0.00    +0.000 HD
ENDBRANCH   7  20
BRANCH   8  22
ATOM     22  O   UNL     1     -32.337-110.724 192.631  0.00  0.00    +0.000 OA
ATOM     23  H   UNL     1     -31.872-111.571 192.702  0.00  0.00    +0.000 HD
ENDBRANCH   8  22
BRANCH  10  24
ATOM     24  O   UNL     1     -34.520-107.736 195.607  0.00  0.00    +0.000 OA
ATOM     25  H   UNL     1     -34.234-106.811 195.521  0.00  0.00    +0.000 HD
ENDBRANCH  10  24
TORSDOF 5
ENDMDL
