MODEL        4
REMARK  Name = 5280343
REMARK  6 active torsions:
REMARK  status: ('A' for Active; 'I' for Inactive)
REMARK    1  A    between atoms: O_2  and  C_12
REMARK    2  A    between atoms: O_3  and  C_14
REMARK    3  A    between atoms: O_5  and  C_16
REMARK    4  A    between atoms: O_6  and  C_20
REMARK    5  A    between atoms: O_7  and  C_22
REMARK    6  A    between atoms: C_10  and  C_11
REMARK                            x       y       z     vdW  Elec       q    Type
REMARK                         _______ _______ _______ _____ _____    ______ ____
ROOT
ATOM      1  O   UNL     1      22.689   9.476  -0.357  0.00  0.00    +0.000 OA
ATOM      2  O   UNL     1      24.696   5.966  -0.865  0.00  0.00    +0.000 OA
ATOM      3  C   UNL     1      22.775   7.070  -0.056  0.00  0.00    +0.000 A 
ATOM      4  C   UNL     1      22.141   8.302   0.088  0.00  0.00    +0.000 A 
ATOM      5  C   UNL     1      23.922   9.433  -0.990  0.00  0.00    +0.000 A 
ATOM      6  C   UNL     1      24.640   8.312  -1.185  0.00  0.00    +0.000 A 
ATOM      7  C   UNL     1      24.089   7.018  -0.715  0.00  0.00    +0.000 A 
ATOM      8  C   UNL     1      22.168   5.904   0.420  0.00  0.00    +0.000 A 
ATOM      9  C   UNL     1      20.895   8.377   0.712  0.00  0.00    +0.000 A 
ATOM     10  C   UNL     1      20.286   7.215   1.188  0.00  0.00    +0.000 A 
ATOM     11  C   UNL     1      20.923   5.982   1.042  0.00  0.00    +0.000 A 
ENDROOT
BRANCH   5  12
ATOM     12  C   UNL     1      24.395  10.761  -1.419  0.00  0.00    +0.000 A 
ATOM     13  C   UNL     1      24.401  11.825  -0.517  0.00  0.00    +0.000 A 
ATOM     14  C   UNL     1      24.838  10.954  -2.728  0.00  0.00    +0.000 A 
ATOM     15  C   UNL     1      24.850  13.082  -0.923  0.00  0.00    +0.000 A 
ATOM     16  C   UNL     1      25.286  12.211  -3.134  0.00  0.00    +0.000 A 
ATOM     17  C   UNL     1      25.292  13.275  -2.232  0.00  0.00    +0.000 A 
BRANCH  15  18
ATOM     18  O   UNL     1      24.850  14.114  -0.035  0.00  0.00    +0.000 OA
ATOM     19  H   UNL     1      25.155  14.924  -0.473  0.00  0.00    +0.000 HD
ENDBRANCH  15  18
BRANCH  17  20
ATOM     20  O   UNL     1      25.734  14.497  -2.640  0.00  0.00    +0.000 OA
ATOM     21  H   UNL     1      25.632  15.139  -1.920  0.00  0.00    +0.000 HD
ENDBRANCH  17  20
ENDBRANCH   5  12
BRANCH   6  22
ATOM     22  O   UNL     1      25.879   8.308  -1.789  0.00  0.00    +0.000 OA
ATOM     23  H   UNL     1      26.276   7.425  -1.720  0.00  0.00    +0.000 HD
ENDBRANCH   6  22
BRANCH   8  24
ATOM     24  O   UNL     1      22.746   4.675   0.304  0.00  0.00    +0.000 OA
ATOM     25  H   UNL     1      23.674   4.709   0.578  0.00  0.00    +0.000 HD
ENDBRANCH   8  24
BRANCH  10  26
ATOM     26  O   UNL     1      19.071   7.286   1.796  0.00  0.00    +0.000 OA
ATOM     27  H   UNL     1      19.158   6.973   2.713  0.00  0.00    +0.000 HD
ENDBRANCH  10  26
TORSDOF 6
ENDMDL
