MODEL        5
REMARK  Name = 5280863
REMARK  5 active torsions:
REMARK  status: ('A' for Active; 'I' for Inactive)
REMARK    1  A    between atoms: O_2  and  C_11
REMARK    2  A    between atoms: O_3  and  C_13
REMARK    3  A    between atoms: O_5  and  C_15
REMARK    4  A    between atoms: O_6  and  C_21
REMARK    5  A    between atoms: C_9  and  C_12
REMARK                            x       y       z     vdW  Elec       q    Type
REMARK                         _______ _______ _______ _____ _____    ______ ____
ROOT
ATOM      1  O   UNL     1      16.697  11.430  11.696  0.00  0.00    +0.000 OA
ATOM      2  O   UNL     1      13.335  12.929   9.948  0.00  0.00    +0.000 OA
ATOM      3  C   UNL     1      15.684  12.723   9.909  0.00  0.00    +0.000 A 
ATOM      4  C   UNL     1      16.794  12.184  10.555  0.00  0.00    +0.000 A 
ATOM      5  C   UNL     1      15.438  11.183  12.220  0.00  0.00    +0.000 A 
ATOM      6  C   UNL     1      14.346  12.477  10.468  0.00  0.00    +0.000 A 
ATOM      7  C   UNL     1      14.289  11.652  11.699  0.00  0.00    +0.000 A 
ATOM      8  C   UNL     1      15.844  13.485   8.749  0.00  0.00    +0.000 A 
ATOM      9  C   UNL     1      18.074  12.405  10.045  0.00  0.00    +0.000 A 
ATOM     10  C   UNL     1      18.238  13.165   8.888  0.00  0.00    +0.000 A 
ATOM     11  C   UNL     1      17.125  13.704   8.240  0.00  0.00    +0.000 A 
ENDROOT
BRANCH   5  12
ATOM     12  C   UNL     1      15.475  10.363  13.444  0.00  0.00    +0.000 A 
ATOM     13  C   UNL     1      14.460  10.480  14.394  0.00  0.00    +0.000 A 
ATOM     14  C   UNL     1      16.525   9.468  13.652  0.00  0.00    +0.000 A 
ATOM     15  C   UNL     1      14.495   9.703  15.552  0.00  0.00    +0.000 A 
ATOM     16  C   UNL     1      16.560   8.691  14.809  0.00  0.00    +0.000 A 
ATOM     17  C   UNL     1      15.545   8.809  15.760  0.00  0.00    +0.000 A 
BRANCH  17  18
ATOM     18  O   UNL     1      15.579   8.050  16.890  0.00  0.00    +0.000 OA
ATOM     19  H   UNL     1      15.246   8.579  17.634  0.00  0.00    +0.000 HD
ENDBRANCH  17  18
ENDBRANCH   5  12
BRANCH   7  20
ATOM     20  O   UNL     1      13.054  11.417  12.265  0.00  0.00    +0.000 OA
ATOM     21  H   UNL     1      12.361  11.841  11.734  0.00  0.00    +0.000 HD
ENDBRANCH   7  20
BRANCH   8  22
ATOM     22  O   UNL     1      14.792  14.034   8.079  0.00  0.00    +0.000 OA
ATOM     23  H   UNL     1      14.111  14.331   8.701  0.00  0.00    +0.000 HD
ENDBRANCH   8  22
BRANCH  10  24
ATOM     24  O   UNL     1      19.486  13.382   8.388  0.00  0.00    +0.000 OA
ATOM     25  H   UNL     1      20.008  13.871   9.046  0.00  0.00    +0.000 HD
ENDBRANCH  10  24
TORSDOF 5
ENDMDL
