MODEL        4
REMARK  Name = 5280343
REMARK  6 active torsions:
REMARK  status: ('A' for Active; 'I' for Inactive)
REMARK    1  A    between atoms: O_2  and  C_12
REMARK    2  A    between atoms: O_3  and  C_14
REMARK    3  A    between atoms: O_5  and  C_16
REMARK    4  A    between atoms: O_6  and  C_20
REMARK    5  A    between atoms: O_7  and  C_22
REMARK    6  A    between atoms: C_10  and  C_11
REMARK                            x       y       z     vdW  Elec       q    Type
REMARK                         _______ _______ _______ _____ _____    ______ ____
ROOT
ATOM      1  O   UNL     1      22.560  -1.209   8.030  0.00  0.00    +0.000 OA
ATOM      2  O   UNL     1      23.961  -0.128   4.359  0.00  0.00    +0.000 OA
ATOM      3  C   UNL     1      23.417   0.522   6.560  0.00  0.00    +0.000 A 
ATOM      4  C   UNL     1      22.929   0.089   7.792  0.00  0.00    +0.000 A 
ATOM      5  C   UNL     1      22.689  -2.133   7.005  0.00  0.00    +0.000 A 
ATOM      6  C   UNL     1      23.137  -1.844   5.770  0.00  0.00    +0.000 A 
ATOM      7  C   UNL     1      23.544  -0.451   5.464  0.00  0.00    +0.000 A 
ATOM      8  C   UNL     1      23.777   1.859   6.375  0.00  0.00    +0.000 A 
ATOM      9  C   UNL     1      22.797   0.992   8.847  0.00  0.00    +0.000 A 
ATOM     10  C   UNL     1      23.156   2.329   8.665  0.00  0.00    +0.000 A 
ATOM     11  C   UNL     1      23.645   2.760   7.431  0.00  0.00    +0.000 A 
ENDROOT
BRANCH   5  12
ATOM     12  C   UNL     1      22.258  -3.487   7.394  0.00  0.00    +0.000 A 
ATOM     13  C   UNL     1      23.107  -4.302   8.142  0.00  0.00    +0.000 A 
ATOM     14  C   UNL     1      20.999  -3.954   7.013  0.00  0.00    +0.000 A 
ATOM     15  C   UNL     1      22.698  -5.584   8.511  0.00  0.00    +0.000 A 
ATOM     16  C   UNL     1      20.591  -5.237   7.381  0.00  0.00    +0.000 A 
ATOM     17  C   UNL     1      21.440  -6.051   8.129  0.00  0.00    +0.000 A 
BRANCH  15  18
ATOM     18  O   UNL     1      23.536  -6.371   9.241  0.00  0.00    +0.000 OA
ATOM     19  H   UNL     1      23.261  -7.300   9.168  0.00  0.00    +0.000 HD
ENDBRANCH  15  18
BRANCH  17  20
ATOM     20  O   UNL     1      21.029  -7.301   8.485  0.00  0.00    +0.000 OA
ATOM     21  H   UNL     1      21.785  -7.813   8.813  0.00  0.00    +0.000 HD
ENDBRANCH  17  20
ENDBRANCH   5  12
BRANCH   6  22
ATOM     22  O   UNL     1      23.223  -2.780   4.762  0.00  0.00    +0.000 OA
ATOM     23  H   UNL     1      23.528  -2.356   3.944  0.00  0.00    +0.000 HD
ENDBRANCH   6  22
BRANCH   8  24
ATOM     24  O   UNL     1      24.258   2.332   5.191  0.00  0.00    +0.000 OA
ATOM     25  H   UNL     1      24.862   1.690   4.788  0.00  0.00    +0.000 HD
ENDBRANCH   8  24
BRANCH  10  26
ATOM     26  O   UNL     1      23.029   3.212   9.692  0.00  0.00    +0.000 OA
ATOM     27  H   UNL     1      23.733   3.879   9.624  0.00  0.00    +0.000 HD
ENDBRANCH  10  26
TORSDOF 6
ENDMDL
