MODEL        5
REMARK  Name = 5280863
REMARK  5 active torsions:
REMARK  status: ('A' for Active; 'I' for Inactive)
REMARK    1  A    between atoms: O_2  and  C_11
REMARK    2  A    between atoms: O_3  and  C_13
REMARK    3  A    between atoms: O_5  and  C_15
REMARK    4  A    between atoms: O_6  and  C_21
REMARK    5  A    between atoms: C_9  and  C_12
REMARK                            x       y       z     vdW  Elec       q    Type
REMARK                         _______ _______ _______ _____ _____    ______ ____
ROOT
ATOM      1  O   UNL     1      -0.578  57.669 -24.860  0.00  0.00    +0.000 OA
ATOM      2  O   UNL     1      -1.864  53.854 -25.488  0.00  0.00    +0.000 OA
ATOM      3  C   UNL     1      -1.232  55.519 -23.942  0.00  0.00    +0.000 A 
ATOM      4  C   UNL     1      -0.791  56.832 -23.795  0.00  0.00    +0.000 A 
ATOM      5  C   UNL     1      -0.823  57.190 -26.137  0.00  0.00    +0.000 A 
ATOM      6  C   UNL     1      -1.482  55.000 -25.296  0.00  0.00    +0.000 A 
ATOM      7  C   UNL     1      -1.242  55.942 -26.416  0.00  0.00    +0.000 A 
ATOM      8  C   UNL     1      -1.431  54.712 -22.819  0.00  0.00    +0.000 A 
ATOM      9  C   UNL     1      -0.545  57.348 -22.521  0.00  0.00    +0.000 A 
ATOM     10  C   UNL     1      -0.743  56.545 -21.399  0.00  0.00    +0.000 A 
ATOM     11  C   UNL     1      -1.186  55.229 -21.547  0.00  0.00    +0.000 A 
ENDROOT
BRANCH   5  12
ATOM     12  C   UNL     1      -0.554  58.188 -27.187  0.00  0.00    +0.000 A 
ATOM     13  C   UNL     1      -0.764  57.865 -28.528  0.00  0.00    +0.000 A 
ATOM     14  C   UNL     1      -0.091  59.458 -26.840  0.00  0.00    +0.000 A 
ATOM     15  C   UNL     1      -0.509  58.810 -29.521  0.00  0.00    +0.000 A 
ATOM     16  C   UNL     1       0.164  60.403 -27.834  0.00  0.00    +0.000 A 
ATOM     17  C   UNL     1      -0.045  60.078 -29.175  0.00  0.00    +0.000 A 
BRANCH  17  18
ATOM     18  O   UNL     1       0.203  61.001 -30.145  0.00  0.00    +0.000 OA
ATOM     19  H   UNL     1       1.130  61.284 -30.079  0.00  0.00    +0.000 HD
ENDBRANCH  17  18
ENDBRANCH   5  12
BRANCH   7  20
ATOM     20  O   UNL     1      -1.445  55.486 -27.701  0.00  0.00    +0.000 OA
ATOM     21  H   UNL     1      -1.721  54.556 -27.681  0.00  0.00    +0.000 HD
ENDBRANCH   7  20
BRANCH   8  22
ATOM     22  O   UNL     1      -1.861  53.422 -22.909  0.00  0.00    +0.000 OA
ATOM     23  H   UNL     1      -1.365  52.945 -23.592  0.00  0.00    +0.000 HD
ENDBRANCH   8  22
BRANCH  10  24
ATOM     24  O   UNL     1      -0.504  57.044 -20.155  0.00  0.00    +0.000 OA
ATOM     25  H   UNL     1      -0.422  58.011 -20.213  0.00  0.00    +0.000 HD
ENDBRANCH  10  24
TORSDOF 5
ENDMDL
