MODEL        4
REMARK  Name = 5280343
REMARK  6 active torsions:
REMARK  status: ('A' for Active; 'I' for Inactive)
REMARK    1  A    between atoms: O_2  and  C_12
REMARK    2  A    between atoms: O_3  and  C_14
REMARK    3  A    between atoms: O_5  and  C_16
REMARK    4  A    between atoms: O_6  and  C_20
REMARK    5  A    between atoms: O_7  and  C_22
REMARK    6  A    between atoms: C_10  and  C_11
REMARK                            x       y       z     vdW  Elec       q    Type
REMARK                         _______ _______ _______ _____ _____    ______ ____
ROOT
ATOM      1  O   UNL     1     -41.668  30.125   5.206  0.00  0.00    +0.000 OA
ATOM      2  O   UNL     1     -40.289  33.368   7.253  0.00  0.00    +0.000 OA
ATOM      3  C   UNL     1     -39.978  31.111   6.642  0.00  0.00    +0.000 A 
ATOM      4  C   UNL     1     -40.503  30.040   5.922  0.00  0.00    +0.000 A 
ATOM      5  C   UNL     1     -42.346  31.334   5.186  0.00  0.00    +0.000 A 
ATOM      6  C   UNL     1     -41.952  32.440   5.844  0.00  0.00    +0.000 A 
ATOM      7  C   UNL     1     -40.699  32.393   6.636  0.00  0.00    +0.000 A 
ATOM      8  C   UNL     1     -38.786  30.965   7.355  0.00  0.00    +0.000 A 
ATOM      9  C   UNL     1     -39.840  28.813   5.913  0.00  0.00    +0.000 A 
ATOM     10  C   UNL     1     -38.648  28.663   6.625  0.00  0.00    +0.000 A 
ATOM     11  C   UNL     1     -38.123  29.738   7.344  0.00  0.00    +0.000 A 
ENDROOT
BRANCH   5  12
ATOM     12  C   UNL     1     -43.579  31.290   4.381  0.00  0.00    +0.000 A 
ATOM     13  C   UNL     1     -44.824  31.280   5.011  0.00  0.00    +0.000 A 
ATOM     14  C   UNL     1     -43.502  31.257   2.988  0.00  0.00    +0.000 A 
ATOM     15  C   UNL     1     -45.991  31.239   4.248  0.00  0.00    +0.000 A 
ATOM     16  C   UNL     1     -44.669  31.215   2.226  0.00  0.00    +0.000 A 
ATOM     17  C   UNL     1     -45.913  31.206   2.855  0.00  0.00    +0.000 A 
BRANCH  15  18
ATOM     18  O   UNL     1     -47.201  31.229   4.873  0.00  0.00    +0.000 OA
ATOM     19  H   UNL     1     -47.912  31.189   4.212  0.00  0.00    +0.000 HD
ENDBRANCH  15  18
BRANCH  17  20
ATOM     20  O   UNL     1     -47.046  31.167   2.099  0.00  0.00    +0.000 OA
ATOM     21  H   UNL     1     -47.825  31.153   2.678  0.00  0.00    +0.000 HD
ENDBRANCH  17  20
ENDBRANCH   5  12
BRANCH   6  22
ATOM     22  O   UNL     1     -42.666  33.619   5.830  0.00  0.00    +0.000 OA
ATOM     23  H   UNL     1     -42.210  34.287   6.366  0.00  0.00    +0.000 HD
ENDBRANCH   6  22
BRANCH   8  24
ATOM     24  O   UNL     1     -38.230  31.981   8.074  0.00  0.00    +0.000 OA
ATOM     25  H   UNL     1     -38.804  32.762   8.057  0.00  0.00    +0.000 HD
ENDBRANCH   8  24
BRANCH  10  26
ATOM     26  O   UNL     1     -37.998  27.468   6.618  0.00  0.00    +0.000 OA
ATOM     27  H   UNL     1     -38.254  26.973   5.820  0.00  0.00    +0.000 HD
ENDBRANCH  10  26
TORSDOF 6
ENDMDL
