MODEL        4
REMARK  Name = 5280343
REMARK  6 active torsions:
REMARK  status: ('A' for Active; 'I' for Inactive)
REMARK    1  A    between atoms: O_2  and  C_12
REMARK    2  A    between atoms: O_3  and  C_14
REMARK    3  A    between atoms: O_5  and  C_16
REMARK    4  A    between atoms: O_6  and  C_20
REMARK    5  A    between atoms: O_7  and  C_22
REMARK    6  A    between atoms: C_10  and  C_11
REMARK                            x       y       z     vdW  Elec       q    Type
REMARK                         _______ _______ _______ _____ _____    ______ ____
ROOT
ATOM      1  O   UNL     1      14.549  18.058  19.870  0.00  0.00    +0.000 OA
ATOM      2  O   UNL     1      12.331  20.119  17.142  0.00  0.00    +0.000 OA
ATOM      3  C   UNL     1      13.164  18.039  17.878  0.00  0.00    +0.000 A 
ATOM      4  C   UNL     1      13.936  17.393  18.841  0.00  0.00    +0.000 A 
ATOM      5  C   UNL     1      14.382  19.432  19.963  0.00  0.00    +0.000 A 
ATOM      6  C   UNL     1      13.671  20.174  19.095  0.00  0.00    +0.000 A 
ATOM      7  C   UNL     1      12.994  19.497  17.962  0.00  0.00    +0.000 A 
ATOM      8  C   UNL     1      12.563  17.308  16.849  0.00  0.00    +0.000 A 
ATOM      9  C   UNL     1      14.114  16.011  18.781  0.00  0.00    +0.000 A 
ATOM     10  C   UNL     1      13.516  15.277  17.756  0.00  0.00    +0.000 A 
ATOM     11  C   UNL     1      12.742  15.926  16.792  0.00  0.00    +0.000 A 
ENDROOT
BRANCH   5  12
ATOM     12  C   UNL     1      15.092  20.021  21.112  0.00  0.00    +0.000 A 
ATOM     13  C   UNL     1      16.407  19.648  21.386  0.00  0.00    +0.000 A 
ATOM     14  C   UNL     1      14.447  20.953  21.926  0.00  0.00    +0.000 A 
ATOM     15  C   UNL     1      17.079  20.207  22.474  0.00  0.00    +0.000 A 
ATOM     16  C   UNL     1      15.118  21.512  23.013  0.00  0.00    +0.000 A 
ATOM     17  C   UNL     1      16.434  21.138  23.288  0.00  0.00    +0.000 A 
BRANCH  15  18
ATOM     18  O   UNL     1      18.363  19.834  22.733  0.00  0.00    +0.000 OA
ATOM     19  H   UNL     1      18.756  20.441  23.381  0.00  0.00    +0.000 HD
ENDBRANCH  15  18
BRANCH  17  20
ATOM     20  O   UNL     1      17.080  21.693  24.352  0.00  0.00    +0.000 OA
ATOM     21  H   UNL     1      16.685  21.372  25.178  0.00  0.00    +0.000 HD
ENDBRANCH  17  20
ENDBRANCH   5  12
BRANCH   6  22
ATOM     22  O   UNL     1      13.551  21.543  19.197  0.00  0.00    +0.000 OA
ATOM     23  H   UNL     1      12.901  21.866  18.553  0.00  0.00    +0.000 HD
ENDBRANCH   6  22
BRANCH   8  24
ATOM     24  O   UNL     1      11.799  17.890  15.883  0.00  0.00    +0.000 OA
ATOM     25  H   UNL     1      11.441  18.735  16.196  0.00  0.00    +0.000 HD
ENDBRANCH   8  24
BRANCH  10  26
ATOM     26  O   UNL     1      13.688  13.929  17.695  0.00  0.00    +0.000 OA
ATOM     27  H   UNL     1      13.535  13.551  18.578  0.00  0.00    +0.000 HD
ENDBRANCH  10  26
TORSDOF 6
ENDMDL
