MODEL        4
REMARK  Name = 5280343
REMARK  6 active torsions:
REMARK  status: ('A' for Active; 'I' for Inactive)
REMARK    1  A    between atoms: O_2  and  C_12
REMARK    2  A    between atoms: O_3  and  C_14
REMARK    3  A    between atoms: O_5  and  C_16
REMARK    4  A    between atoms: O_6  and  C_20
REMARK    5  A    between atoms: O_7  and  C_22
REMARK    6  A    between atoms: C_10  and  C_11
REMARK                            x       y       z     vdW  Elec       q    Type
REMARK                         _______ _______ _______ _____ _____    ______ ____
ROOT
ATOM      1  O   UNL     1      -0.753  57.118 -25.118  0.00  0.00    +0.000 OA
ATOM      2  O   UNL     1      -1.885  53.208 -24.910  0.00  0.00    +0.000 OA
ATOM      3  C   UNL     1      -1.349  55.196 -23.761  0.00  0.00    +0.000 A 
ATOM      4  C   UNL     1      -0.960  56.528 -23.899  0.00  0.00    +0.000 A 
ATOM      5  C   UNL     1      -0.953  56.361 -26.263  0.00  0.00    +0.000 A 
ATOM      6  C   UNL     1      -1.319  55.066 -26.266  0.00  0.00    +0.000 A 
ATOM      7  C   UNL     1      -1.549  54.384 -24.970  0.00  0.00    +0.000 A 
ATOM      8  C   UNL     1      -1.543  54.647 -22.491  0.00  0.00    +0.000 A 
ATOM      9  C   UNL     1      -0.761  57.318 -22.767  0.00  0.00    +0.000 A 
ATOM     10  C   UNL     1      -0.955  56.773 -21.497  0.00  0.00    +0.000 A 
ATOM     11  C   UNL     1      -1.345  55.440 -21.360  0.00  0.00    +0.000 A 
ENDROOT
BRANCH   5  12
ATOM     12  C   UNL     1      -0.697  57.115 -27.502  0.00  0.00    +0.000 A 
ATOM     13  C   UNL     1      -0.311  56.443 -28.661  0.00  0.00    +0.000 A 
ATOM     14  C   UNL     1      -0.843  58.503 -27.517  0.00  0.00    +0.000 A 
ATOM     15  C   UNL     1      -0.070  57.157 -29.835  0.00  0.00    +0.000 A 
ATOM     16  C   UNL     1      -0.602  59.217 -28.691  0.00  0.00    +0.000 A 
ATOM     17  C   UNL     1      -0.215  58.544 -29.850  0.00  0.00    +0.000 A 
BRANCH  15  18
ATOM     18  O   UNL     1       0.308  56.490 -30.961  0.00  0.00    +0.000 OA
ATOM     19  H   UNL     1       0.420  57.118 -31.693  0.00  0.00    +0.000 HD
ENDBRANCH  15  18
BRANCH  17  20
ATOM     20  O   UNL     1       0.015  59.253 -30.991  0.00  0.00    +0.000 OA
ATOM     21  H   UNL     1       0.272  58.648 -31.705  0.00  0.00    +0.000 HD
ENDBRANCH  17  20
ENDBRANCH   5  12
BRANCH   6  22
ATOM     22  O   UNL     1      -1.477  54.332 -27.422  0.00  0.00    +0.000 OA
ATOM     23  H   UNL     1      -1.643  53.402 -27.202  0.00  0.00    +0.000 HD
ENDBRANCH   6  22
BRANCH   8  24
ATOM     24  O   UNL     1      -1.923  53.352 -22.300  0.00  0.00    +0.000 OA
ATOM     25  H   UNL     1      -1.406  52.760 -22.866  0.00  0.00    +0.000 HD
ENDBRANCH   8  24
BRANCH  10  26
ATOM     26  O   UNL     1      -0.763  57.542 -20.391  0.00  0.00    +0.000 OA
ATOM     27  H   UNL     1      -0.439  58.417 -20.667  0.00  0.00    +0.000 HD
ENDBRANCH  10  26
TORSDOF 6
ENDMDL
