MODEL        4
REMARK  Name = 5280343
REMARK  6 active torsions:
REMARK  status: ('A' for Active; 'I' for Inactive)
REMARK    1  A    between atoms: O_2  and  C_12
REMARK    2  A    between atoms: O_3  and  C_14
REMARK    3  A    between atoms: O_5  and  C_16
REMARK    4  A    between atoms: O_6  and  C_20
REMARK    5  A    between atoms: O_7  and  C_22
REMARK    6  A    between atoms: C_10  and  C_11
REMARK                            x       y       z     vdW  Elec       q    Type
REMARK                         _______ _______ _______ _____ _____    ______ ____
ROOT
ATOM      1  O   UNL     1      29.776  36.572  14.965  0.00  0.00    +0.000 OA
ATOM      2  O   UNL     1      31.077  39.496  12.443  0.00  0.00    +0.000 OA
ATOM      3  C   UNL     1      29.691  38.890  14.252  0.00  0.00    +0.000 A 
ATOM      4  C   UNL     1      29.286  37.847  15.082  0.00  0.00    +0.000 A 
ATOM      5  C   UNL     1      30.725  36.314  13.988  0.00  0.00    +0.000 A 
ATOM      6  C   UNL     1      31.193  37.229  13.120  0.00  0.00    +0.000 A 
ATOM      7  C   UNL     1      30.688  38.621  13.204  0.00  0.00    +0.000 A 
ATOM      8  C   UNL     1      29.155  40.170  14.416  0.00  0.00    +0.000 A 
ATOM      9  C   UNL     1      28.340  38.076  16.081  0.00  0.00    +0.000 A 
ATOM     10  C   UNL     1      27.803  39.354  16.248  0.00  0.00    +0.000 A 
ATOM     11  C   UNL     1      28.210  40.398  15.416  0.00  0.00    +0.000 A 
ENDROOT
BRANCH   5  12
ATOM     12  C   UNL     1      31.167  34.909  13.972  0.00  0.00    +0.000 A 
ATOM     13  C   UNL     1      32.516  34.599  14.138  0.00  0.00    +0.000 A 
ATOM     14  C   UNL     1      30.234  33.887  13.791  0.00  0.00    +0.000 A 
ATOM     15  C   UNL     1      32.934  33.268  14.124  0.00  0.00    +0.000 A 
ATOM     16  C   UNL     1      30.652  32.556  13.776  0.00  0.00    +0.000 A 
ATOM     17  C   UNL     1      32.001  32.247  13.942  0.00  0.00    +0.000 A 
BRANCH  15  18
ATOM     18  O   UNL     1      34.255  32.978  14.286  0.00  0.00    +0.000 OA
ATOM     19  H   UNL     1      34.381  32.015  14.293  0.00  0.00    +0.000 HD
ENDBRANCH  15  18
BRANCH  17  20
ATOM     20  O   UNL     1      32.397  30.943  13.928  0.00  0.00    +0.000 OA
ATOM     21  H   UNL     1      33.355  30.890  14.074  0.00  0.00    +0.000 HD
ENDBRANCH  17  20
ENDBRANCH   5  12
BRANCH   6  22
ATOM     22  O   UNL     1      32.114  36.933  12.138  0.00  0.00    +0.000 OA
ATOM     23  H   UNL     1      32.307  37.728  11.616  0.00  0.00    +0.000 HD
ENDBRANCH   6  22
BRANCH   8  24
ATOM     24  O   UNL     1      29.517  41.224  13.632  0.00  0.00    +0.000 OA
ATOM     25  H   UNL     1      29.842  40.914  12.773  0.00  0.00    +0.000 HD
ENDBRANCH   8  24
BRANCH  10  26
ATOM     26  O   UNL     1      26.881  39.580  17.222  0.00  0.00    +0.000 OA
ATOM     27  H   UNL     1      27.336  39.655  18.078  0.00  0.00    +0.000 HD
ENDBRANCH  10  26
TORSDOF 6
ENDMDL
