MODEL        4
REMARK  Name = 5280343
REMARK  6 active torsions:
REMARK  status: ('A' for Active; 'I' for Inactive)
REMARK    1  A    between atoms: O_2  and  C_12
REMARK    2  A    between atoms: O_3  and  C_14
REMARK    3  A    between atoms: O_5  and  C_16
REMARK    4  A    between atoms: O_6  and  C_20
REMARK    5  A    between atoms: O_7  and  C_22
REMARK    6  A    between atoms: C_10  and  C_11
REMARK                            x       y       z     vdW  Elec       q    Type
REMARK                         _______ _______ _______ _____ _____    ______ ____
ROOT
ATOM      1  O   UNL     1      14.497  39.133  75.292  0.00  0.00    +0.000 OA
ATOM      2  O   UNL     1      11.629  36.604  73.883  0.00  0.00    +0.000 OA
ATOM      3  C   UNL     1      13.358  38.133  73.397  0.00  0.00    +0.000 A 
ATOM      4  C   UNL     1      14.319  38.982  73.942  0.00  0.00    +0.000 A 
ATOM      5  C   UNL     1      13.695  38.399  76.152  0.00  0.00    +0.000 A 
ATOM      6  C   UNL     1      12.727  37.553  75.755  0.00  0.00    +0.000 A 
ATOM      7  C   UNL     1      12.494  37.361  74.304  0.00  0.00    +0.000 A 
ATOM      8  C   UNL     1      13.221  38.021  72.011  0.00  0.00    +0.000 A 
ATOM      9  C   UNL     1      15.149  39.726  73.104  0.00  0.00    +0.000 A 
ATOM     10  C   UNL     1      15.015  39.616  71.718  0.00  0.00    +0.000 A 
ATOM     11  C   UNL     1      14.052  38.765  71.175  0.00  0.00    +0.000 A 
ENDROOT
BRANCH   5  12
ATOM     12  C   UNL     1      13.990  38.654  77.573  0.00  0.00    +0.000 A 
ATOM     13  C   UNL     1      14.960  37.898  78.231  0.00  0.00    +0.000 A 
ATOM     14  C   UNL     1      13.299  39.652  78.260  0.00  0.00    +0.000 A 
ATOM     15  C   UNL     1      15.240  38.141  79.576  0.00  0.00    +0.000 A 
ATOM     16  C   UNL     1      13.578  39.894  79.605  0.00  0.00    +0.000 A 
ATOM     17  C   UNL     1      14.548  39.139  80.263  0.00  0.00    +0.000 A 
BRANCH  15  18
ATOM     18  O   UNL     1      16.188  37.396  80.209  0.00  0.00    +0.000 OA
ATOM     19  H   UNL     1      16.275  37.690  81.130  0.00  0.00    +0.000 HD
ENDBRANCH  15  18
BRANCH  17  20
ATOM     20  O   UNL     1      14.814  39.386  81.577  0.00  0.00    +0.000 OA
ATOM     21  H   UNL     1      15.491  38.769  81.895  0.00  0.00    +0.000 HD
ENDBRANCH  17  20
ENDBRANCH   5  12
BRANCH   6  22
ATOM     22  O   UNL     1      11.923  36.862  76.637  0.00  0.00    +0.000 OA
ATOM     23  H   UNL     1      11.324  36.276  76.147  0.00  0.00    +0.000 HD
ENDBRANCH   6  22
BRANCH   8  24
ATOM     24  O   UNL     1      12.298  37.206  71.428  0.00  0.00    +0.000 OA
ATOM     25  H   UNL     1      12.293  36.336  71.856  0.00  0.00    +0.000 HD
ENDBRANCH   8  24
BRANCH  10  26
ATOM     26  O   UNL     1      15.824  40.341  70.898  0.00  0.00    +0.000 OA
ATOM     27  H   UNL     1      16.751  40.177  71.143  0.00  0.00    +0.000 HD
ENDBRANCH  10  26
TORSDOF 6
ENDMDL
