MODEL        5
REMARK  Name = 5280863
REMARK  5 active torsions:
REMARK  status: ('A' for Active; 'I' for Inactive)
REMARK    1  A    between atoms: O_2  and  C_11
REMARK    2  A    between atoms: O_3  and  C_13
REMARK    3  A    between atoms: O_5  and  C_15
REMARK    4  A    between atoms: O_6  and  C_21
REMARK    5  A    between atoms: C_9  and  C_12
REMARK                            x       y       z     vdW  Elec       q    Type
REMARK                         _______ _______ _______ _____ _____    ______ ____
ROOT
ATOM      1  O   UNL     1     -14.994  -7.598  -7.684  0.00  0.00    +0.000 OA
ATOM      2  O   UNL     1     -14.951  -9.117  -3.904  0.00  0.00    +0.000 OA
ATOM      3  C   UNL     1     -14.965  -9.537  -6.224  0.00  0.00    +0.000 A 
ATOM      4  C   UNL     1     -14.982  -8.954  -7.490  0.00  0.00    +0.000 A 
ATOM      5  C   UNL     1     -14.976  -6.770  -6.573  0.00  0.00    +0.000 A 
ATOM      6  C   UNL     1     -14.960  -8.664  -5.040  0.00  0.00    +0.000 A 
ATOM      7  C   UNL     1     -14.967  -7.204  -5.299  0.00  0.00    +0.000 A 
ATOM      8  C   UNL     1     -14.955 -10.927  -6.087  0.00  0.00    +0.000 A 
ATOM      9  C   UNL     1     -14.990  -9.761  -8.629  0.00  0.00    +0.000 A 
ATOM     10  C   UNL     1     -14.980 -11.149  -8.496  0.00  0.00    +0.000 A 
ATOM     11  C   UNL     1     -14.962 -11.731  -7.228  0.00  0.00    +0.000 A 
ENDROOT
BRANCH   5  12
ATOM     12  C   UNL     1     -14.991  -5.339  -6.922  0.00  0.00    +0.000 A 
ATOM     13  C   UNL     1     -14.638  -4.930  -8.208  0.00  0.00    +0.000 A 
ATOM     14  C   UNL     1     -15.361  -4.392  -5.966  0.00  0.00    +0.000 A 
ATOM     15  C   UNL     1     -14.653  -3.575  -8.538  0.00  0.00    +0.000 A 
ATOM     16  C   UNL     1     -15.376  -3.037  -6.296  0.00  0.00    +0.000 A 
ATOM     17  C   UNL     1     -15.022  -2.628  -7.583  0.00  0.00    +0.000 A 
BRANCH  17  18
ATOM     18  O   UNL     1     -15.037  -1.306  -7.906  0.00  0.00    +0.000 OA
ATOM     19  H   UNL     1     -15.828  -0.897  -7.515  0.00  0.00    +0.000 HD
ENDBRANCH  17  18
ENDBRANCH   5  12
BRANCH   7  20
ATOM     20  O   UNL     1     -14.983  -6.353  -4.214  0.00  0.00    +0.000 OA
ATOM     21  H   UNL     1     -15.098  -6.864  -3.397  0.00  0.00    +0.000 HD
ENDBRANCH   7  20
BRANCH   8  22
ATOM     22  O   UNL     1     -14.939 -11.546  -4.873  0.00  0.00    +0.000 OA
ATOM     23  H   UNL     1     -14.527 -10.975  -4.206  0.00  0.00    +0.000 HD
ENDBRANCH   8  22
BRANCH  10  24
ATOM     24  O   UNL     1     -14.988 -11.939  -9.605  0.00  0.00    +0.000 OA
ATOM     25  H   UNL     1     -14.086 -11.984  -9.966  0.00  0.00    +0.000 HD
ENDBRANCH  10  24
TORSDOF 5
ENDMDL
