MODEL        5
REMARK  Name = 5280863
REMARK  5 active torsions:
REMARK  status: ('A' for Active; 'I' for Inactive)
REMARK    1  A    between atoms: O_2  and  C_11
REMARK    2  A    between atoms: O_3  and  C_13
REMARK    3  A    between atoms: O_5  and  C_15
REMARK    4  A    between atoms: O_6  and  C_21
REMARK    5  A    between atoms: C_9  and  C_12
REMARK                            x       y       z     vdW  Elec       q    Type
REMARK                         _______ _______ _______ _____ _____    ______ ____
ROOT
ATOM      1  O   UNL     1     -13.219  12.911 -39.667  0.00  0.00    +0.000 OA
ATOM      2  O   UNL     1     -11.340  11.165 -42.833  0.00  0.00    +0.000 OA
ATOM      3  C   UNL     1     -12.768  10.915 -40.973  0.00  0.00    +0.000 A 
ATOM      4  C   UNL     1     -13.380  11.572 -39.908  0.00  0.00    +0.000 A 
ATOM      5  C   UNL     1     -12.421  13.646 -40.529  0.00  0.00    +0.000 A 
ATOM      6  C   UNL     1     -11.908  11.687 -41.884  0.00  0.00    +0.000 A 
ATOM      7  C   UNL     1     -11.767  13.133 -41.588  0.00  0.00    +0.000 A 
ATOM      8  C   UNL     1     -12.969   9.546 -41.168  0.00  0.00    +0.000 A 
ATOM      9  C   UNL     1     -14.199  10.861 -39.028  0.00  0.00    +0.000 A 
ATOM     10  C   UNL     1     -14.402   9.495 -39.220  0.00  0.00    +0.000 A 
ATOM     11  C   UNL     1     -13.788   8.839 -40.288  0.00  0.00    +0.000 A 
ENDROOT
BRANCH   5  12
ATOM     12  C   UNL     1     -12.331  15.069 -40.157  0.00  0.00    +0.000 A 
ATOM     13  C   UNL     1     -12.240  16.045 -41.150  0.00  0.00    +0.000 A 
ATOM     14  C   UNL     1     -12.340  15.441 -38.813  0.00  0.00    +0.000 A 
ATOM     15  C   UNL     1     -12.156  17.393 -40.798  0.00  0.00    +0.000 A 
ATOM     16  C   UNL     1     -12.256  16.788 -38.461  0.00  0.00    +0.000 A 
ATOM     17  C   UNL     1     -12.163  17.764 -39.454  0.00  0.00    +0.000 A 
BRANCH  17  18
ATOM     18  O   UNL     1     -12.082  19.079 -39.110  0.00  0.00    +0.000 OA
ATOM     19  H   UNL     1     -11.461  19.172 -38.368  0.00  0.00    +0.000 HD
ENDBRANCH  17  18
ENDBRANCH   5  12
BRANCH   7  20
ATOM     20  O   UNL     1     -10.953  13.886 -42.407  0.00  0.00    +0.000 OA
ATOM     21  H   UNL     1     -10.668  13.354 -43.168  0.00  0.00    +0.000 HD
ENDBRANCH   7  20
BRANCH   8  22
ATOM     22  O   UNL     1     -12.393   8.858 -42.194  0.00  0.00    +0.000 OA
ATOM     23  H   UNL     1     -11.455   9.091 -42.275  0.00  0.00    +0.000 HD
ENDBRANCH   8  22
BRANCH  10  24
ATOM     24  O   UNL     1     -15.200   8.799 -38.364  0.00  0.00    +0.000 OA
ATOM     25  H   UNL     1     -14.654   8.164 -37.869  0.00  0.00    +0.000 HD
ENDBRANCH  10  24
TORSDOF 5
ENDMDL
