MODEL        5
REMARK  Name = 5280863
REMARK  5 active torsions:
REMARK  status: ('A' for Active; 'I' for Inactive)
REMARK    1  A    between atoms: O_2  and  C_11
REMARK    2  A    between atoms: O_3  and  C_13
REMARK    3  A    between atoms: O_5  and  C_15
REMARK    4  A    between atoms: O_6  and  C_21
REMARK    5  A    between atoms: C_9  and  C_12
REMARK                            x       y       z     vdW  Elec       q    Type
REMARK                         _______ _______ _______ _____ _____    ______ ____
ROOT
ATOM      1  O   UNL     1     -10.621 -20.871   8.260  0.00  0.00    +0.000 OA
ATOM      2  O   UNL     1     -11.485 -18.560  11.502  0.00  0.00    +0.000 OA
ATOM      3  C   UNL     1     -10.919 -18.660   9.215  0.00  0.00    +0.000 A 
ATOM      4  C   UNL     1     -10.630 -19.506   8.147  0.00  0.00    +0.000 A 
ATOM      5  C   UNL     1     -10.925 -21.435   9.489  0.00  0.00    +0.000 A 
ATOM      6  C   UNL     1     -11.230 -19.251  10.526  0.00  0.00    +0.000 A 
ATOM      7  C   UNL     1     -11.213 -20.732  10.600  0.00  0.00    +0.000 A 
ATOM      8  C   UNL     1     -10.912 -17.274   9.040  0.00  0.00    +0.000 A 
ATOM      9  C   UNL     1     -10.330 -18.969   6.893  0.00  0.00    +0.000 A 
ATOM     10  C   UNL     1     -10.322 -17.586   6.715  0.00  0.00    +0.000 A 
ATOM     11  C   UNL     1     -10.613 -16.740   7.786  0.00  0.00    +0.000 A 
ENDROOT
BRANCH   5  12
ATOM     12  C   UNL     1     -10.880 -22.908   9.474  0.00  0.00    +0.000 A 
ATOM     13  C   UNL     1     -11.423 -23.611   8.399  0.00  0.00    +0.000 A 
ATOM     14  C   UNL     1     -10.291 -23.598  10.533  0.00  0.00    +0.000 A 
ATOM     15  C   UNL     1     -11.380 -25.006   8.384  0.00  0.00    +0.000 A 
ATOM     16  C   UNL     1     -10.248 -24.992  10.519  0.00  0.00    +0.000 A 
ATOM     17  C   UNL     1     -10.792 -25.696   9.443  0.00  0.00    +0.000 A 
BRANCH  17  18
ATOM     18  O   UNL     1     -10.749 -27.057   9.429  0.00  0.00    +0.000 OA
ATOM     19  H   UNL     1     -11.629 -27.402   9.655  0.00  0.00    +0.000 HD
ENDBRANCH  17  18
ENDBRANCH   5  12
BRANCH   7  20
ATOM     20  O   UNL     1     -11.479 -21.323  11.817  0.00  0.00    +0.000 OA
ATOM     21  H   UNL     1     -11.531 -20.644  12.509  0.00  0.00    +0.000 HD
ENDBRANCH   7  20
BRANCH   8  22
ATOM     22  O   UNL     1     -11.187 -16.404  10.052  0.00  0.00    +0.000 OA
ATOM     23  H   UNL     1     -11.961 -16.702  10.556  0.00  0.00    +0.000 HD
ENDBRANCH   8  22
BRANCH  10  24
ATOM     24  O   UNL     1     -10.030 -17.059   5.494  0.00  0.00    +0.000 OA
ATOM     25  H   UNL     1      -9.605 -17.743   4.949  0.00  0.00    +0.000 HD
ENDBRANCH  10  24
TORSDOF 5
ENDMDL
