MODEL        5
REMARK  Name = 5280863
REMARK  5 active torsions:
REMARK  status: ('A' for Active; 'I' for Inactive)
REMARK    1  A    between atoms: O_2  and  C_11
REMARK    2  A    between atoms: O_3  and  C_13
REMARK    3  A    between atoms: O_5  and  C_15
REMARK    4  A    between atoms: O_6  and  C_21
REMARK    5  A    between atoms: C_9  and  C_12
REMARK                            x       y       z     vdW  Elec       q    Type
REMARK                         _______ _______ _______ _____ _____    ______ ____
ROOT
ATOM      1  O   UNL     1      14.822 121.969  15.968  0.00  0.00    +0.000 OA
ATOM      2  O   UNL     1      11.723 121.033  18.443  0.00  0.00    +0.000 OA
ATOM      3  C   UNL     1      13.884 121.947  18.207  0.00  0.00    +0.000 A 
ATOM      4  C   UNL     1      14.908 122.240  17.309  0.00  0.00    +0.000 A 
ATOM      5  C   UNL     1      13.660 121.389  15.484  0.00  0.00    +0.000 A 
ATOM      6  C   UNL     1      12.654 121.319  17.702  0.00  0.00    +0.000 A 
ATOM      7  C   UNL     1      12.604 121.049  16.245  0.00  0.00    +0.000 A 
ATOM      8  C   UNL     1      14.029 122.246  19.564  0.00  0.00    +0.000 A 
ATOM      9  C   UNL     1      16.087 122.835  17.764  0.00  0.00    +0.000 A 
ATOM     10  C   UNL     1      16.234 123.134  19.118  0.00  0.00    +0.000 A 
ATOM     11  C   UNL     1      15.207 122.841  20.016  0.00  0.00    +0.000 A 
ENDROOT
BRANCH   5  12
ATOM     12  C   UNL     1      13.699 121.151  14.031  0.00  0.00    +0.000 A 
ATOM     13  C   UNL     1      14.503 120.136  13.511  0.00  0.00    +0.000 A 
ATOM     14  C   UNL     1      12.931 121.939  13.174  0.00  0.00    +0.000 A 
ATOM     15  C   UNL     1      14.539 119.910  12.135  0.00  0.00    +0.000 A 
ATOM     16  C   UNL     1      12.967 121.713  11.798  0.00  0.00    +0.000 A 
ATOM     17  C   UNL     1      13.772 120.698  11.278  0.00  0.00    +0.000 A 
BRANCH  17  18
ATOM     18  O   UNL     1      13.807 120.477   9.935  0.00  0.00    +0.000 OA
ATOM     19  H   UNL     1      14.562 120.959   9.557  0.00  0.00    +0.000 HD
ENDBRANCH  17  18
ENDBRANCH   5  12
BRANCH   7  20
ATOM     20  O   UNL     1      11.475 120.441  15.736  0.00  0.00    +0.000 OA
ATOM     21  H   UNL     1      10.824 120.311  16.444  0.00  0.00    +0.000 HD
ENDBRANCH   7  20
BRANCH   8  22
ATOM     22  O   UNL     1      13.058 121.979  20.482  0.00  0.00    +0.000 OA
ATOM     23  H   UNL     1      12.191 122.258  20.151  0.00  0.00    +0.000 HD
ENDBRANCH   8  22
BRANCH  10  24
ATOM     24  O   UNL     1      17.382 123.714  19.565  0.00  0.00    +0.000 OA
ATOM     25  H   UNL     1      17.180 124.248  20.351  0.00  0.00    +0.000 HD
ENDBRANCH  10  24
TORSDOF 5
ENDMDL
