MODEL        5
REMARK  Name = 5280863
REMARK  5 active torsions:
REMARK  status: ('A' for Active; 'I' for Inactive)
REMARK    1  A    between atoms: O_2  and  C_11
REMARK    2  A    between atoms: O_3  and  C_13
REMARK    3  A    between atoms: O_5  and  C_15
REMARK    4  A    between atoms: O_6  and  C_21
REMARK    5  A    between atoms: C_9  and  C_12
REMARK                            x       y       z     vdW  Elec       q    Type
REMARK                         _______ _______ _______ _____ _____    ______ ____
ROOT
ATOM      1  O   UNL     1     -29.845  -5.467 -12.602  0.00  0.00    +0.000 OA
ATOM      2  O   UNL     1     -33.397  -7.014 -11.340  0.00  0.00    +0.000 OA
ATOM      3  C   UNL     1     -31.903  -5.189 -11.347  0.00  0.00    +0.000 A 
ATOM      4  C   UNL     1     -30.676  -4.720 -11.809  0.00  0.00    +0.000 A 
ATOM      5  C   UNL     1     -30.249  -6.741 -12.969  0.00  0.00    +0.000 A 
ATOM      6  C   UNL     1     -32.333  -6.545 -11.721  0.00  0.00    +0.000 A 
ATOM      7  C   UNL     1     -31.404  -7.315 -12.584  0.00  0.00    +0.000 A 
ATOM      8  C   UNL     1     -32.709  -4.381 -10.539  0.00  0.00    +0.000 A 
ATOM      9  C   UNL     1     -30.245  -3.437 -11.466  0.00  0.00    +0.000 A 
ATOM     10  C   UNL     1     -31.046  -2.628 -10.661  0.00  0.00    +0.000 A 
ATOM     11  C   UNL     1     -32.276  -3.099 -10.199  0.00  0.00    +0.000 A 
ENDROOT
BRANCH   5  12
ATOM     12  C   UNL     1     -29.266  -7.434 -13.819  0.00  0.00    +0.000 A 
ATOM     13  C   UNL     1     -28.004  -7.748 -13.313  0.00  0.00    +0.000 A 
ATOM     14  C   UNL     1     -29.597  -7.779 -15.130  0.00  0.00    +0.000 A 
ATOM     15  C   UNL     1     -27.073  -8.405 -14.118  0.00  0.00    +0.000 A 
ATOM     16  C   UNL     1     -28.666  -8.436 -15.934  0.00  0.00    +0.000 A 
ATOM     17  C   UNL     1     -27.403  -8.748 -15.428  0.00  0.00    +0.000 A 
BRANCH  17  18
ATOM     18  O   UNL     1     -26.495  -9.390 -16.213  0.00  0.00    +0.000 OA
ATOM     19  H   UNL     1     -25.974  -8.728 -16.697  0.00  0.00    +0.000 HD
ENDBRANCH  17  18
ENDBRANCH   5  12
BRANCH   7  20
ATOM     20  O   UNL     1     -31.762  -8.598 -12.939  0.00  0.00    +0.000 OA
ATOM     21  H   UNL     1     -32.593  -8.842 -12.500  0.00  0.00    +0.000 HD
ENDBRANCH   7  20
BRANCH   8  22
ATOM     22  O   UNL     1     -33.916  -4.793 -10.061  0.00  0.00    +0.000 OA
ATOM     23  H   UNL     1     -33.853  -5.693  -9.707  0.00  0.00    +0.000 HD
ENDBRANCH   8  22
BRANCH  10  24
ATOM     24  O   UNL     1     -30.629  -1.376 -10.325  0.00  0.00    +0.000 OA
ATOM     25  H   UNL     1     -30.960  -0.745 -10.986  0.00  0.00    +0.000 HD
ENDBRANCH  10  24
TORSDOF 5
ENDMDL
