MODEL        5
REMARK  Name = 5280863
REMARK  5 active torsions:
REMARK  status: ('A' for Active; 'I' for Inactive)
REMARK    1  A    between atoms: O_2  and  C_11
REMARK    2  A    between atoms: O_3  and  C_13
REMARK    3  A    between atoms: O_5  and  C_15
REMARK    4  A    between atoms: O_6  and  C_21
REMARK    5  A    between atoms: C_9  and  C_12
REMARK                            x       y       z     vdW  Elec       q    Type
REMARK                         _______ _______ _______ _____ _____    ______ ____
ROOT
ATOM      1  O   UNL     1     -46.586  36.318  -9.028  0.00  0.00    +0.000 OA
ATOM      2  O   UNL     1     -45.107  33.870  -6.125  0.00  0.00    +0.000 OA
ATOM      3  C   UNL     1     -44.908  35.889  -7.327  0.00  0.00    +0.000 A 
ATOM      4  C   UNL     1     -45.462  36.679  -8.332  0.00  0.00    +0.000 A 
ATOM      5  C   UNL     1     -47.204  35.119  -8.709  0.00  0.00    +0.000 A 
ATOM      6  C   UNL     1     -45.551  34.609  -6.993  0.00  0.00    +0.000 A 
ATOM      7  C   UNL     1     -46.766  34.262  -7.768  0.00  0.00    +0.000 A 
ATOM      8  C   UNL     1     -43.759  36.309  -6.652  0.00  0.00    +0.000 A 
ATOM      9  C   UNL     1     -44.869  37.897  -8.668  0.00  0.00    +0.000 A 
ATOM     10  C   UNL     1     -43.722  38.320  -7.997  0.00  0.00    +0.000 A 
ATOM     11  C   UNL     1     -43.169  37.528  -6.990  0.00  0.00    +0.000 A 
ENDROOT
BRANCH   5  12
ATOM     12  C   UNL     1     -48.397  34.851  -9.530  0.00  0.00    +0.000 A 
ATOM     13  C   UNL     1     -48.255  34.367 -10.831  0.00  0.00    +0.000 A 
ATOM     14  C   UNL     1     -49.670  35.080  -9.007  0.00  0.00    +0.000 A 
ATOM     15  C   UNL     1     -49.385  34.113 -11.608  0.00  0.00    +0.000 A 
ATOM     16  C   UNL     1     -50.800  34.826  -9.784  0.00  0.00    +0.000 A 
ATOM     17  C   UNL     1     -50.657  34.343 -11.086  0.00  0.00    +0.000 A 
BRANCH  17  18
ATOM     18  O   UNL     1     -51.760  34.094 -11.844  0.00  0.00    +0.000 OA
ATOM     19  H   UNL     1     -51.859  33.133 -11.949  0.00  0.00    +0.000 HD
ENDBRANCH  17  18
ENDBRANCH   5  12
BRANCH   7  20
ATOM     20  O   UNL     1     -47.386  33.060  -7.499  0.00  0.00    +0.000 OA
ATOM     21  H   UNL     1     -46.890  32.579  -6.816  0.00  0.00    +0.000 HD
ENDBRANCH   7  20
BRANCH   8  22
ATOM     22  O   UNL     1     -43.178  35.574  -5.663  0.00  0.00    +0.000 OA
ATOM     23  H   UNL     1     -43.845  35.266  -5.031  0.00  0.00    +0.000 HD
ENDBRANCH   8  22
BRANCH  10  24
ATOM     24  O   UNL     1     -43.142  39.507  -8.323  0.00  0.00    +0.000 OA
ATOM     25  H   UNL     1     -43.796  40.065  -8.775  0.00  0.00    +0.000 HD
ENDBRANCH  10  24
TORSDOF 5
ENDMDL
