MODEL        5
REMARK  Name = 5280863
REMARK  5 active torsions:
REMARK  status: ('A' for Active; 'I' for Inactive)
REMARK    1  A    between atoms: O_2  and  C_11
REMARK    2  A    between atoms: O_3  and  C_13
REMARK    3  A    between atoms: O_5  and  C_15
REMARK    4  A    between atoms: O_6  and  C_21
REMARK    5  A    between atoms: C_9  and  C_12
REMARK                            x       y       z     vdW  Elec       q    Type
REMARK                         _______ _______ _______ _____ _____    ______ ____
ROOT
ATOM      1  O   UNL     1      60.534  32.132  75.429  0.00  0.00    +0.000 OA
ATOM      2  O   UNL     1      57.435  34.777  75.505  0.00  0.00    +0.000 OA
ATOM      3  C   UNL     1      59.058  33.640  74.228  0.00  0.00    +0.000 A 
ATOM      4  C   UNL     1      60.112  32.729  74.270  0.00  0.00    +0.000 A 
ATOM      5  C   UNL     1      59.874  32.439  76.609  0.00  0.00    +0.000 A 
ATOM      6  C   UNL     1      58.363  33.980  75.479  0.00  0.00    +0.000 A 
ATOM      7  C   UNL     1      58.850  33.306  76.706  0.00  0.00    +0.000 A 
ATOM      8  C   UNL     1      58.673  34.218  73.016  0.00  0.00    +0.000 A 
ATOM      9  C   UNL     1      60.789  32.391  73.097  0.00  0.00    +0.000 A 
ATOM     10  C   UNL     1      60.408  32.966  71.885  0.00  0.00    +0.000 A 
ATOM     11  C   UNL     1      59.351  33.878  71.845  0.00  0.00    +0.000 A 
ENDROOT
BRANCH   5  12
ATOM     12  C   UNL     1      60.426  31.731  77.777  0.00  0.00    +0.000 A 
ATOM     13  C   UNL     1      59.848  30.535  78.206  0.00  0.00    +0.000 A 
ATOM     14  C   UNL     1      61.528  32.255  78.454  0.00  0.00    +0.000 A 
ATOM     15  C   UNL     1      60.371  29.865  79.311  0.00  0.00    +0.000 A 
ATOM     16  C   UNL     1      62.051  31.584  79.560  0.00  0.00    +0.000 A 
ATOM     17  C   UNL     1      61.471  30.389  79.988  0.00  0.00    +0.000 A 
BRANCH  17  18
ATOM     18  O   UNL     1      61.982  29.734  81.067  0.00  0.00    +0.000 OA
ATOM     19  H   UNL     1      61.454  28.934  81.228  0.00  0.00    +0.000 HD
ENDBRANCH  17  18
ENDBRANCH   5  12
BRANCH   7  20
ATOM     20  O   UNL     1      58.237  33.615  77.902  0.00  0.00    +0.000 OA
ATOM     21  H   UNL     1      57.530  34.264  77.752  0.00  0.00    +0.000 HD
ENDBRANCH   7  20
BRANCH   8  22
ATOM     22  O   UNL     1      57.650  35.113  72.921  0.00  0.00    +0.000 OA
ATOM     23  H   UNL     1      56.879  34.802  73.420  0.00  0.00    +0.000 HD
ENDBRANCH   8  22
BRANCH  10  24
ATOM     24  O   UNL     1      61.066  32.639  70.739  0.00  0.00    +0.000 OA
ATOM     25  H   UNL     1      61.911  32.218  70.971  0.00  0.00    +0.000 HD
ENDBRANCH  10  24
TORSDOF 5
ENDMDL
