MODEL        4
REMARK  Name = 5280343
REMARK  6 active torsions:
REMARK  status: ('A' for Active; 'I' for Inactive)
REMARK    1  A    between atoms: O_2  and  C_12
REMARK    2  A    between atoms: O_3  and  C_14
REMARK    3  A    between atoms: O_5  and  C_16
REMARK    4  A    between atoms: O_6  and  C_20
REMARK    5  A    between atoms: O_7  and  C_22
REMARK    6  A    between atoms: C_10  and  C_11
REMARK                            x       y       z     vdW  Elec       q    Type
REMARK                         _______ _______ _______ _____ _____    ______ ____
ROOT
ATOM      1  O   UNL     1     153.689 172.644 142.676  0.00  0.00    +0.000 OA
ATOM      2  O   UNL     1     155.062 168.827 142.279  0.00  0.00    +0.000 OA
ATOM      3  C   UNL     1     155.531 171.071 142.832  0.00  0.00    +0.000 A 
ATOM      4  C   UNL     1     155.001 172.355 142.947  0.00  0.00    +0.000 A 
ATOM      5  C   UNL     1     152.851 171.611 142.284  0.00  0.00    +0.000 A 
ATOM      6  C   UNL     1     153.239 170.332 142.127  0.00  0.00    +0.000 A 
ATOM      7  C   UNL     1     154.651 169.973 142.403  0.00  0.00    +0.000 A 
ATOM      8  C   UNL     1     156.878 170.836 143.120  0.00  0.00    +0.000 A 
ATOM      9  C   UNL     1     155.816 173.413 143.349  0.00  0.00    +0.000 A 
ATOM     10  C   UNL     1     157.162 173.182 143.638  0.00  0.00    +0.000 A 
ATOM     11  C   UNL     1     157.691 171.895 143.523  0.00  0.00    +0.000 A 
ENDROOT
BRANCH   5  12
ATOM     12  C   UNL     1     151.471 172.057 142.026  0.00  0.00    +0.000 A 
ATOM     13  C   UNL     1     150.993 172.126 140.718  0.00  0.00    +0.000 A 
ATOM     14  C   UNL     1     150.642 172.411 143.091  0.00  0.00    +0.000 A 
ATOM     15  C   UNL     1     149.685 172.547 140.474  0.00  0.00    +0.000 A 
ATOM     16  C   UNL     1     149.335 172.833 142.848  0.00  0.00    +0.000 A 
ATOM     17  C   UNL     1     148.857 172.901 141.539  0.00  0.00    +0.000 A 
BRANCH  15  18
ATOM     18  O   UNL     1     149.229 172.612 139.192  0.00  0.00    +0.000 OA
ATOM     19  H   UNL     1     148.344 173.010 139.179  0.00  0.00    +0.000 HD
ENDBRANCH  15  18
BRANCH  17  20
ATOM     20  O   UNL     1     147.578 173.313 141.314  0.00  0.00    +0.000 OA
ATOM     21  H   UNL     1     147.350 173.178 140.381  0.00  0.00    +0.000 HD
ENDBRANCH  17  20
ENDBRANCH   5  12
BRANCH   6  22
ATOM     22  O   UNL     1     152.388 169.335 141.703  0.00  0.00    +0.000 OA
ATOM     23  H   UNL     1     152.885 168.512 141.570  0.00  0.00    +0.000 HD
ENDBRANCH   6  22
BRANCH   8  24
ATOM     24  O   UNL     1     157.445 169.601 143.023  0.00  0.00    +0.000 OA
ATOM     25  H   UNL     1     156.775 168.909 143.131  0.00  0.00    +0.000 HD
ENDBRANCH   8  24
BRANCH  10  26
ATOM     26  O   UNL     1     157.959 174.212 144.031  0.00  0.00    +0.000 OA
ATOM     27  H   UNL     1     157.689 175.018 143.559  0.00  0.00    +0.000 HD
ENDBRANCH  10  26
TORSDOF 6
ENDMDL
