MODEL        4
REMARK  Name = 5280343
REMARK  6 active torsions:
REMARK  status: ('A' for Active; 'I' for Inactive)
REMARK    1  A    between atoms: O_2  and  C_12
REMARK    2  A    between atoms: O_3  and  C_14
REMARK    3  A    between atoms: O_5  and  C_16
REMARK    4  A    between atoms: O_6  and  C_20
REMARK    5  A    between atoms: O_7  and  C_22
REMARK    6  A    between atoms: C_10  and  C_11
REMARK                            x       y       z     vdW  Elec       q    Type
REMARK                         _______ _______ _______ _____ _____    ______ ____
ROOT
ATOM      1  O   UNL     1      36.796 -10.335  -8.448  0.00  0.00    +0.000 OA
ATOM      2  O   UNL     1      33.974 -12.420  -6.376  0.00  0.00    +0.000 OA
ATOM      3  C   UNL     1      36.171 -11.566  -6.452  0.00  0.00    +0.000 A 
ATOM      4  C   UNL     1      37.091 -10.846  -7.211  0.00  0.00    +0.000 A 
ATOM      5  C   UNL     1      35.523 -10.532  -8.959  0.00  0.00    +0.000 A 
ATOM      6  C   UNL     1      34.547 -11.215  -8.333  0.00  0.00    +0.000 A 
ATOM      7  C   UNL     1      34.822 -11.791  -6.995  0.00  0.00    +0.000 A 
ATOM      8  C   UNL     1      36.529 -12.065  -5.197  0.00  0.00    +0.000 A 
ATOM      9  C   UNL     1      38.378 -10.621  -6.720  0.00  0.00    +0.000 A 
ATOM     10  C   UNL     1      38.739 -11.118  -5.467  0.00  0.00    +0.000 A 
ATOM     11  C   UNL     1      37.815 -11.838  -4.708  0.00  0.00    +0.000 A 
ENDROOT
BRANCH   5  12
ATOM     12  C   UNL     1      35.339  -9.933 -10.293  0.00  0.00    +0.000 A 
ATOM     13  C   UNL     1      35.423  -8.550 -10.454  0.00  0.00    +0.000 A 
ATOM     14  C   UNL     1      35.082 -10.749 -11.395  0.00  0.00    +0.000 A 
ATOM     15  C   UNL     1      35.250  -7.983 -11.717  0.00  0.00    +0.000 A 
ATOM     16  C   UNL     1      34.908 -10.182 -12.657  0.00  0.00    +0.000 A 
ATOM     17  C   UNL     1      34.991  -8.799 -12.818  0.00  0.00    +0.000 A 
BRANCH  15  18
ATOM     18  O   UNL     1      35.332  -6.631 -11.862  0.00  0.00    +0.000 OA
ATOM     19  H   UNL     1      35.138  -6.387 -12.782  0.00  0.00    +0.000 HD
ENDBRANCH  15  18
BRANCH  17  20
ATOM     20  O   UNL     1      34.822  -8.257 -14.057  0.00  0.00    +0.000 OA
ATOM     21  H   UNL     1      34.778  -7.290 -13.988  0.00  0.00    +0.000 HD
ENDBRANCH  17  20
ENDBRANCH   5  12
BRANCH   6  22
ATOM     22  O   UNL     1      33.301 -11.422  -8.883  0.00  0.00    +0.000 OA
ATOM     23  H   UNL     1      32.750 -11.933  -8.270  0.00  0.00    +0.000 HD
ENDBRANCH   6  22
BRANCH   8  24
ATOM     24  O   UNL     1      35.667 -12.775  -4.416  0.00  0.00    +0.000 OA
ATOM     25  H   UNL     1      34.803 -12.337  -4.377  0.00  0.00    +0.000 HD
ENDBRANCH   8  24
BRANCH  10  26
ATOM     26  O   UNL     1      39.992 -10.900  -4.985  0.00  0.00    +0.000 OA
ATOM     27  H   UNL     1      40.081  -9.962  -4.746  0.00  0.00    +0.000 HD
ENDBRANCH  10  26
TORSDOF 6
ENDMDL
