MODEL        5
REMARK  Name = 5280863
REMARK  5 active torsions:
REMARK  status: ('A' for Active; 'I' for Inactive)
REMARK    1  A    between atoms: O_2  and  C_11
REMARK    2  A    between atoms: O_3  and  C_13
REMARK    3  A    between atoms: O_5  and  C_15
REMARK    4  A    between atoms: O_6  and  C_21
REMARK    5  A    between atoms: C_9  and  C_12
REMARK                            x       y       z     vdW  Elec       q    Type
REMARK                         _______ _______ _______ _____ _____    ______ ____
ROOT
ATOM      1  O   UNL     1      22.072  35.872  11.189  0.00  0.00    +0.000 OA
ATOM      2  O   UNL     1      22.269  32.126   9.599  0.00  0.00    +0.000 OA
ATOM      3  C   UNL     1      23.128  34.321   9.649  0.00  0.00    +0.000 A 
ATOM      4  C   UNL     1      23.007  35.581  10.230  0.00  0.00    +0.000 A 
ATOM      5  C   UNL     1      21.218  34.864  11.607  0.00  0.00    +0.000 A 
ATOM      6  C   UNL     1      22.215  33.250  10.078  0.00  0.00    +0.000 A 
ATOM      7  C   UNL     1      21.224  33.609  11.120  0.00  0.00    +0.000 A 
ATOM      8  C   UNL     1      24.101  34.083   8.674  0.00  0.00    +0.000 A 
ATOM      9  C   UNL     1      23.861  36.615   9.839  0.00  0.00    +0.000 A 
ATOM     10  C   UNL     1      24.832  36.381   8.867  0.00  0.00    +0.000 A 
ATOM     11  C   UNL     1      24.953  35.118   8.286  0.00  0.00    +0.000 A 
ENDROOT
BRANCH   5  12
ATOM     12  C   UNL     1      20.264  35.309  12.638  0.00  0.00    +0.000 A 
ATOM     13  C   UNL     1      19.529  36.480  12.450  0.00  0.00    +0.000 A 
ATOM     14  C   UNL     1      20.095  34.559  13.802  0.00  0.00    +0.000 A 
ATOM     15  C   UNL     1      18.625  36.900  13.426  0.00  0.00    +0.000 A 
ATOM     16  C   UNL     1      19.191  34.980  14.778  0.00  0.00    +0.000 A 
ATOM     17  C   UNL     1      18.457  36.151  14.589  0.00  0.00    +0.000 A 
BRANCH  17  18
ATOM     18  O   UNL     1      17.574  36.562  15.541  0.00  0.00    +0.000 OA
ATOM     19  H   UNL     1      17.856  37.429  15.878  0.00  0.00    +0.000 HD
ENDBRANCH  17  18
ENDBRANCH   5  12
BRANCH   7  20
ATOM     20  O   UNL     1      20.337  32.638  11.533  0.00  0.00    +0.000 OA
ATOM     21  H   UNL     1      20.489  31.819  11.035  0.00  0.00    +0.000 HD
ENDBRANCH   7  20
BRANCH   8  22
ATOM     22  O   UNL     1      24.259  32.870   8.075  0.00  0.00    +0.000 OA
ATOM     23  H   UNL     1      24.289  32.164   8.739  0.00  0.00    +0.000 HD
ENDBRANCH   8  22
BRANCH  10  24
ATOM     24  O   UNL     1      25.666  37.387   8.483  0.00  0.00    +0.000 OA
ATOM     25  H   UNL     1      25.800  37.990   9.234  0.00  0.00    +0.000 HD
ENDBRANCH  10  24
TORSDOF 5
ENDMDL
