MODEL        5
REMARK  Name = 5280863
REMARK  5 active torsions:
REMARK  status: ('A' for Active; 'I' for Inactive)
REMARK    1  A    between atoms: O_2  and  C_11
REMARK    2  A    between atoms: O_3  and  C_13
REMARK    3  A    between atoms: O_5  and  C_15
REMARK    4  A    between atoms: O_6  and  C_21
REMARK    5  A    between atoms: C_9  and  C_12
REMARK                            x       y       z     vdW  Elec       q    Type
REMARK                         _______ _______ _______ _____ _____    ______ ____
ROOT
ATOM      1  O   UNL     1      -7.659  -6.600 -25.003  0.00  0.00    +0.000 OA
ATOM      2  O   UNL     1      -8.268  -2.882 -23.452  0.00  0.00    +0.000 OA
ATOM      3  C   UNL     1      -9.056  -5.089 -23.716  0.00  0.00    +0.000 A 
ATOM      4  C   UNL     1      -8.789  -6.337 -24.274  0.00  0.00    +0.000 A 
ATOM      5  C   UNL     1      -6.735  -5.582 -25.182  0.00  0.00    +0.000 A 
ATOM      6  C   UNL     1      -8.086  -4.000 -23.913  0.00  0.00    +0.000 A 
ATOM      7  C   UNL     1      -6.876  -4.332 -24.704  0.00  0.00    +0.000 A 
ATOM      8  C   UNL     1     -10.226  -4.879 -22.982  0.00  0.00    +0.000 A 
ATOM      9  C   UNL     1      -9.695  -7.386 -24.102  0.00  0.00    +0.000 A 
ATOM     10  C   UNL     1     -10.864  -7.180 -23.371  0.00  0.00    +0.000 A 
ATOM     11  C   UNL     1     -11.129  -5.929 -22.811  0.00  0.00    +0.000 A 
ENDROOT
BRANCH   5  12
ATOM     12  C   UNL     1      -5.570  -5.997 -25.982  0.00  0.00    +0.000 A 
ATOM     13  C   UNL     1      -5.092  -7.305 -25.893  0.00  0.00    +0.000 A 
ATOM     14  C   UNL     1      -4.946  -5.082 -26.830  0.00  0.00    +0.000 A 
ATOM     15  C   UNL     1      -3.989  -7.697 -26.652  0.00  0.00    +0.000 A 
ATOM     16  C   UNL     1      -3.843  -5.475 -27.589  0.00  0.00    +0.000 A 
ATOM     17  C   UNL     1      -3.364  -6.783 -27.499  0.00  0.00    +0.000 A 
BRANCH  17  18
ATOM     18  O   UNL     1      -2.288  -7.167 -28.240  0.00  0.00    +0.000 OA
ATOM     19  H   UNL     1      -2.597  -7.713 -28.983  0.00  0.00    +0.000 HD
ENDBRANCH  17  18
ENDBRANCH   5  12
BRANCH   7  20
ATOM     20  O   UNL     1      -5.954  -3.332 -24.928  0.00  0.00    +0.000 OA
ATOM     21  H   UNL     1      -6.339  -2.471 -24.699  0.00  0.00    +0.000 HD
ENDBRANCH   7  20
BRANCH   8  22
ATOM     22  O   UNL     1     -10.533  -3.678 -22.417  0.00  0.00    +0.000 OA
ATOM     23  H   UNL     1     -10.374  -2.956 -23.043  0.00  0.00    +0.000 HD
ENDBRANCH   8  22
BRANCH  10  24
ATOM     24  O   UNL     1     -11.749  -8.201 -23.202  0.00  0.00    +0.000 OA
ATOM     25  H   UNL     1     -11.257  -9.037 -23.134  0.00  0.00    +0.000 HD
ENDBRANCH  10  24
TORSDOF 5
ENDMDL
