MODEL        5
REMARK  Name = 5280863
REMARK  5 active torsions:
REMARK  status: ('A' for Active; 'I' for Inactive)
REMARK    1  A    between atoms: O_2  and  C_11
REMARK    2  A    between atoms: O_3  and  C_13
REMARK    3  A    between atoms: O_5  and  C_15
REMARK    4  A    between atoms: O_6  and  C_21
REMARK    5  A    between atoms: C_9  and  C_12
REMARK                            x       y       z     vdW  Elec       q    Type
REMARK                         _______ _______ _______ _____ _____    ______ ____
ROOT
ATOM      1  O   UNL     1       8.062   6.287  93.560  0.00  0.00    +0.000 OA
ATOM      2  O   UNL     1      11.226   8.837  93.864  0.00  0.00    +0.000 OA
ATOM      3  C   UNL     1       8.984   8.361  94.421  0.00  0.00    +0.000 A 
ATOM      4  C   UNL     1       7.941   7.449  94.277  0.00  0.00    +0.000 A 
ATOM      5  C   UNL     1       9.280   6.003  92.963  0.00  0.00    +0.000 A 
ATOM      6  C   UNL     1      10.275   8.072  93.778  0.00  0.00    +0.000 A 
ATOM      7  C   UNL     1      10.361   6.802  93.017  0.00  0.00    +0.000 A 
ATOM      8  C   UNL     1       8.802   9.530  95.164  0.00  0.00    +0.000 A 
ATOM      9  C   UNL     1       6.706   7.701  94.876  0.00  0.00    +0.000 A 
ATOM     10  C   UNL     1       6.520   8.867  95.618  0.00  0.00    +0.000 A 
ATOM     11  C   UNL     1       7.566   9.779  95.762  0.00  0.00    +0.000 A 
ENDROOT
BRANCH   5  12
ATOM     12  C   UNL     1       9.275   4.728  92.224  0.00  0.00    +0.000 A 
ATOM     13  C   UNL     1       9.259   3.518  92.920  0.00  0.00    +0.000 A 
ATOM     14  C   UNL     1       9.283   4.730  90.829  0.00  0.00    +0.000 A 
ATOM     15  C   UNL     1       9.253   2.311  92.220  0.00  0.00    +0.000 A 
ATOM     16  C   UNL     1       9.278   3.523  90.130  0.00  0.00    +0.000 A 
ATOM     17  C   UNL     1       9.263   2.313  90.826  0.00  0.00    +0.000 A 
BRANCH  17  18
ATOM     18  O   UNL     1       9.256   1.135  90.144  0.00  0.00    +0.000 OA
ATOM     19  H   UNL     1      10.162   0.783  90.116  0.00  0.00    +0.000 HD
ENDBRANCH  17  18
ENDBRANCH   5  12
BRANCH   7  20
ATOM     20  O   UNL     1      11.549   6.506  92.383  0.00  0.00    +0.000 OA
ATOM     21  H   UNL     1      12.138   7.277  92.408  0.00  0.00    +0.000 HD
ENDBRANCH   7  20
BRANCH   8  22
ATOM     22  O   UNL     1       9.789  10.453  95.335  0.00  0.00    +0.000 OA
ATOM     23  H   UNL     1      10.634  10.017  95.524  0.00  0.00    +0.000 HD
ENDBRANCH   8  22
BRANCH  10  24
ATOM     24  O   UNL     1       5.316   9.116  96.204  0.00  0.00    +0.000 OA
ATOM     25  H   UNL     1       4.633   9.162  95.513  0.00  0.00    +0.000 HD
ENDBRANCH  10  24
TORSDOF 5
ENDMDL
