MODEL        4
REMARK  Name = 5280343
REMARK  6 active torsions:
REMARK  status: ('A' for Active; 'I' for Inactive)
REMARK    1  A    between atoms: O_2  and  C_12
REMARK    2  A    between atoms: O_3  and  C_14
REMARK    3  A    between atoms: O_5  and  C_16
REMARK    4  A    between atoms: O_6  and  C_20
REMARK    5  A    between atoms: O_7  and  C_22
REMARK    6  A    between atoms: C_10  and  C_11
REMARK                            x       y       z     vdW  Elec       q    Type
REMARK                         _______ _______ _______ _____ _____    ______ ____
ROOT
ATOM      1  O   UNL     1      22.189  35.558  11.051  0.00  0.00    +0.000 OA
ATOM      2  O   UNL     1      22.228  31.751   9.596  0.00  0.00    +0.000 OA
ATOM      3  C   UNL     1      23.189  33.905   9.582  0.00  0.00    +0.000 A 
ATOM      4  C   UNL     1      23.122  35.190  10.118  0.00  0.00    +0.000 A 
ATOM      5  C   UNL     1      21.282  34.607  11.491  0.00  0.00    +0.000 A 
ATOM      6  C   UNL     1      21.234  33.336  11.049  0.00  0.00    +0.000 A 
ATOM      7  C   UNL     1      22.221  32.894  10.035  0.00  0.00    +0.000 A 
ATOM      8  C   UNL     1      24.162  33.587   8.631  0.00  0.00    +0.000 A 
ATOM      9  C   UNL     1      24.027  36.167   9.703  0.00  0.00    +0.000 A 
ATOM     10  C   UNL     1      25.001  35.853   8.753  0.00  0.00    +0.000 A 
ATOM     11  C   UNL     1      25.067  34.566   8.219  0.00  0.00    +0.000 A 
ENDROOT
BRANCH   5  12
ATOM     12  C   UNL     1      20.337  35.132  12.493  0.00  0.00    +0.000 A 
ATOM     13  C   UNL     1      19.556  36.249  12.197  0.00  0.00    +0.000 A 
ATOM     14  C   UNL     1      20.224  34.512  13.737  0.00  0.00    +0.000 A 
ATOM     15  C   UNL     1      18.661  36.746  13.145  0.00  0.00    +0.000 A 
ATOM     16  C   UNL     1      19.330  35.009  14.685  0.00  0.00    +0.000 A 
ATOM     17  C   UNL     1      18.549  36.126  14.389  0.00  0.00    +0.000 A 
BRANCH  15  18
ATOM     18  O   UNL     1      17.904  37.838  12.846  0.00  0.00    +0.000 OA
ATOM     19  H   UNL     1      17.222  37.961  13.525  0.00  0.00    +0.000 HD
ENDBRANCH  15  18
BRANCH  17  20
ATOM     20  O   UNL     1      17.677  36.600  15.323  0.00  0.00    +0.000 OA
ATOM     21  H   UNL     1      17.147  37.317  14.941  0.00  0.00    +0.000 HD
ENDBRANCH  17  20
ENDBRANCH   5  12
BRANCH   6  22
ATOM     22  O   UNL     1      20.298  32.423  11.483  0.00  0.00    +0.000 OA
ATOM     23  H   UNL     1      20.399  31.591  10.996  0.00  0.00    +0.000 HD
ENDBRANCH   6  22
BRANCH   8  24
ATOM     24  O   UNL     1      24.270  32.347   8.077  0.00  0.00    +0.000 OA
ATOM     25  H   UNL     1      24.263  31.665   8.766  0.00  0.00    +0.000 HD
ENDBRANCH   8  24
BRANCH  10  26
ATOM     26  O   UNL     1      25.885  36.804   8.347  0.00  0.00    +0.000 OA
ATOM     27  H   UNL     1      25.640  37.656   8.748  0.00  0.00    +0.000 HD
ENDBRANCH  10  26
TORSDOF 6
ENDMDL
