MODEL        4
REMARK  Name = 5280343
REMARK  6 active torsions:
REMARK  status: ('A' for Active; 'I' for Inactive)
REMARK    1  A    between atoms: O_2  and  C_12
REMARK    2  A    between atoms: O_3  and  C_14
REMARK    3  A    between atoms: O_5  and  C_16
REMARK    4  A    between atoms: O_6  and  C_20
REMARK    5  A    between atoms: O_7  and  C_22
REMARK    6  A    between atoms: C_10  and  C_11
REMARK                            x       y       z     vdW  Elec       q    Type
REMARK                         _______ _______ _______ _____ _____    ______ ____
ROOT
ATOM      1  O   UNL     1     -12.657  12.824 -39.569  0.00  0.00    +0.000 OA
ATOM      2  O   UNL     1     -11.275  11.111 -42.999  0.00  0.00    +0.000 OA
ATOM      3  C   UNL     1     -12.570  10.896 -41.040  0.00  0.00    +0.000 A 
ATOM      4  C   UNL     1     -13.008  11.537 -39.883  0.00  0.00    +0.000 A 
ATOM      5  C   UNL     1     -11.843  13.522 -40.448  0.00  0.00    +0.000 A 
ATOM      6  C   UNL     1     -11.347  13.016 -41.592  0.00  0.00    +0.000 A 
ATOM      7  C   UNL     1     -11.695  11.625 -41.970  0.00  0.00    +0.000 A 
ATOM      8  C   UNL     1     -12.959   9.580 -41.306  0.00  0.00    +0.000 A 
ATOM      9  C   UNL     1     -13.836  10.866 -38.983  0.00  0.00    +0.000 A 
ATOM     10  C   UNL     1     -14.227   9.552 -39.246  0.00  0.00    +0.000 A 
ATOM     11  C   UNL     1     -13.788   8.912 -40.406  0.00  0.00    +0.000 A 
ENDROOT
BRANCH   5  12
ATOM     12  C   UNL     1     -11.544  14.891 -39.993  0.00  0.00    +0.000 A 
ATOM     13  C   UNL     1     -12.459  15.576 -39.194  0.00  0.00    +0.000 A 
ATOM     14  C   UNL     1     -10.345  15.502 -40.361  0.00  0.00    +0.000 A 
ATOM     15  C   UNL     1     -12.175  16.872 -38.762  0.00  0.00    +0.000 A 
ATOM     16  C   UNL     1     -10.061  16.798 -39.930  0.00  0.00    +0.000 A 
ATOM     17  C   UNL     1     -10.976  17.483 -39.131  0.00  0.00    +0.000 A 
BRANCH  15  18
ATOM     18  O   UNL     1     -13.076  17.532 -37.983  0.00  0.00    +0.000 OA
ATOM     19  H   UNL     1     -12.671  18.338 -37.623  0.00  0.00    +0.000 HD
ENDBRANCH  15  18
BRANCH  17  20
ATOM     20  O   UNL     1     -10.687  18.747 -38.714  0.00  0.00    +0.000 OA
ATOM     21  H   UNL     1     -11.373  19.055 -38.102  0.00  0.00    +0.000 HD
ENDBRANCH  17  20
ENDBRANCH   5  12
BRANCH   6  22
ATOM     22  O   UNL     1     -10.512  13.725 -42.429  0.00  0.00    +0.000 OA
ATOM     23  H   UNL     1     -10.276  13.181 -43.197  0.00  0.00    +0.000 HD
ENDBRANCH   6  22
BRANCH   8  24
ATOM     24  O   UNL     1     -12.559   8.908 -42.422  0.00  0.00    +0.000 OA
ATOM     25  H   UNL     1     -12.652   9.467 -43.208  0.00  0.00    +0.000 HD
ENDBRANCH   8  24
BRANCH  10  26
ATOM     26  O   UNL     1     -15.035   8.896 -38.371  0.00  0.00    +0.000 OA
ATOM     27  H   UNL     1     -14.492   8.305 -37.821  0.00  0.00    +0.000 HD
ENDBRANCH  10  26
TORSDOF 6
ENDMDL
