MODEL        5
REMARK  Name = 5280863
REMARK  5 active torsions:
REMARK  status: ('A' for Active; 'I' for Inactive)
REMARK    1  A    between atoms: O_2  and  C_11
REMARK    2  A    between atoms: O_3  and  C_13
REMARK    3  A    between atoms: O_5  and  C_15
REMARK    4  A    between atoms: O_6  and  C_21
REMARK    5  A    between atoms: C_9  and  C_12
REMARK                            x       y       z     vdW  Elec       q    Type
REMARK                         _______ _______ _______ _____ _____    ______ ____
ROOT
ATOM      1  O   UNL     1     -42.604  31.007   4.724  0.00  0.00    +0.000 OA
ATOM      2  O   UNL     1     -43.419  34.998   4.850  0.00  0.00    +0.000 OA
ATOM      3  C   UNL     1     -43.986  32.870   4.008  0.00  0.00    +0.000 A 
ATOM      4  C   UNL     1     -43.654  31.517   4.006  0.00  0.00    +0.000 A 
ATOM      5  C   UNL     1     -41.847  31.876   5.495  0.00  0.00    +0.000 A 
ATOM      6  C   UNL     1     -43.179  33.799   4.813  0.00  0.00    +0.000 A 
ATOM      7  C   UNL     1     -42.056  33.202   5.577  0.00  0.00    +0.000 A 
ATOM      8  C   UNL     1     -45.069  33.332   3.255  0.00  0.00    +0.000 A 
ATOM      9  C   UNL     1     -44.404  30.615   3.248  0.00  0.00    +0.000 A 
ATOM     10  C   UNL     1     -45.485  31.073   2.496  0.00  0.00    +0.000 A 
ATOM     11  C   UNL     1     -45.817  32.428   2.499  0.00  0.00    +0.000 A 
ENDROOT
BRANCH   5  12
ATOM     12  C   UNL     1     -40.752  31.201   6.213  0.00  0.00    +0.000 A 
ATOM     13  C   UNL     1     -39.761  31.955   6.843  0.00  0.00    +0.000 A 
ATOM     14  C   UNL     1     -40.706  29.808   6.266  0.00  0.00    +0.000 A 
ATOM     15  C   UNL     1     -38.725  31.316   7.523  0.00  0.00    +0.000 A 
ATOM     16  C   UNL     1     -39.670  29.169   6.946  0.00  0.00    +0.000 A 
ATOM     17  C   UNL     1     -38.678  29.924   7.575  0.00  0.00    +0.000 A 
BRANCH  17  18
ATOM     18  O   UNL     1     -37.667  29.300   8.240  0.00  0.00    +0.000 OA
ATOM     19  H   UNL     1     -37.827  29.374   9.196  0.00  0.00    +0.000 HD
ENDBRANCH  17  18
ENDBRANCH   5  12
BRANCH   7  20
ATOM     20  O   UNL     1     -41.263  34.044   6.328  0.00  0.00    +0.000 OA
ATOM     21  H   UNL     1     -41.601  34.953   6.271  0.00  0.00    +0.000 HD
ENDBRANCH   7  20
BRANCH   8  22
ATOM     22  O   UNL     1     -45.434  34.644   3.223  0.00  0.00    +0.000 OA
ATOM     23  H   UNL     1     -45.441  35.017   4.117  0.00  0.00    +0.000 HD
ENDBRANCH   8  22
BRANCH  10  24
ATOM     24  O   UNL     1     -46.218  30.196   1.755  0.00  0.00    +0.000 OA
ATOM     25  H   UNL     1     -47.153  30.272   2.012  0.00  0.00    +0.000 HD
ENDBRANCH  10  24
TORSDOF 5
ENDMDL
