MODEL        4
REMARK  Name = 5280343
REMARK  6 active torsions:
REMARK  status: ('A' for Active; 'I' for Inactive)
REMARK    1  A    between atoms: O_2  and  C_12
REMARK    2  A    between atoms: O_3  and  C_14
REMARK    3  A    between atoms: O_5  and  C_16
REMARK    4  A    between atoms: O_6  and  C_20
REMARK    5  A    between atoms: O_7  and  C_22
REMARK    6  A    between atoms: C_10  and  C_11
REMARK                            x       y       z     vdW  Elec       q    Type
REMARK                         _______ _______ _______ _____ _____    ______ ____
ROOT
ATOM      1  O   UNL     1      31.060  -8.314   4.264  0.00  0.00    +0.000 OA
ATOM      2  O   UNL     1      32.795 -11.548   6.036  0.00  0.00    +0.000 OA
ATOM      3  C   UNL     1      33.079  -9.511   4.882  0.00  0.00    +0.000 A 
ATOM      4  C   UNL     1      32.425  -8.431   4.291  0.00  0.00    +0.000 A 
ATOM      5  C   UNL     1      30.298  -9.306   4.861  0.00  0.00    +0.000 A 
ATOM      6  C   UNL     1      30.805 -10.402   5.457  0.00  0.00    +0.000 A 
ATOM      7  C   UNL     1      32.276 -10.574   5.506  0.00  0.00    +0.000 A 
ATOM      8  C   UNL     1      34.474  -9.578   4.878  0.00  0.00    +0.000 A 
ATOM      9  C   UNL     1      33.163  -7.412   3.690  0.00  0.00    +0.000 A 
ATOM     10  C   UNL     1      34.558  -7.475   3.684  0.00  0.00    +0.000 A 
ATOM     11  C   UNL     1      35.211  -8.557   4.278  0.00  0.00    +0.000 A 
ENDROOT
BRANCH   5  12
ATOM     12  C   UNL     1      28.849  -9.058   4.761  0.00  0.00    +0.000 A 
ATOM     13  C   UNL     1      28.081  -8.934   5.919  0.00  0.00    +0.000 A 
ATOM     14  C   UNL     1      28.246  -8.946   3.508  0.00  0.00    +0.000 A 
ATOM     15  C   UNL     1      26.709  -8.698   5.824  0.00  0.00    +0.000 A 
ATOM     16  C   UNL     1      26.875  -8.710   3.413  0.00  0.00    +0.000 A 
ATOM     17  C   UNL     1      26.106  -8.587   4.571  0.00  0.00    +0.000 A 
BRANCH  15  18
ATOM     18  O   UNL     1      25.968  -8.581   6.960  0.00  0.00    +0.000 OA
ATOM     19  H   UNL     1      25.043  -8.394   6.732  0.00  0.00    +0.000 HD
ENDBRANCH  15  18
BRANCH  17  20
ATOM     20  O   UNL     1      24.768  -8.354   4.465  0.00  0.00    +0.000 OA
ATOM     21  H   UNL     1      24.369  -8.328   5.349  0.00  0.00    +0.000 HD
ENDBRANCH  17  20
ENDBRANCH   5  12
BRANCH   6  22
ATOM     22  O   UNL     1      30.018 -11.387   6.014  0.00  0.00    +0.000 OA
ATOM     23  H   UNL     1      30.579 -12.085   6.387  0.00  0.00    +0.000 HD
ENDBRANCH   6  22
BRANCH   8  24
ATOM     24  O   UNL     1      35.162 -10.610   5.442  0.00  0.00    +0.000 OA
ATOM     25  H   UNL     1      34.756 -11.458   5.207  0.00  0.00    +0.000 HD
ENDBRANCH   8  24
BRANCH  10  26
ATOM     26  O   UNL     1      35.281  -6.482   3.100  0.00  0.00    +0.000 OA
ATOM     27  H   UNL     1      35.753  -5.986   3.790  0.00  0.00    +0.000 HD
ENDBRANCH  10  26
TORSDOF 6
ENDMDL
