MODEL        5
REMARK  Name = 5280863
REMARK  5 active torsions:
REMARK  status: ('A' for Active; 'I' for Inactive)
REMARK    1  A    between atoms: O_2  and  C_11
REMARK    2  A    between atoms: O_3  and  C_13
REMARK    3  A    between atoms: O_5  and  C_15
REMARK    4  A    between atoms: O_6  and  C_21
REMARK    5  A    between atoms: C_9  and  C_12
REMARK                            x       y       z     vdW  Elec       q    Type
REMARK                         _______ _______ _______ _____ _____    ______ ____
ROOT
ATOM      1  O   UNL     1      15.108  18.239  19.532  0.00  0.00    +0.000 OA
ATOM      2  O   UNL     1      14.424  14.402  20.720  0.00  0.00    +0.000 OA
ATOM      3  C   UNL     1      13.979  16.122  19.170  0.00  0.00    +0.000 A 
ATOM      4  C   UNL     1      14.253  17.441  18.818  0.00  0.00    +0.000 A 
ATOM      5  C   UNL     1      15.736  17.705  20.647  0.00  0.00    +0.000 A 
ATOM      6  C   UNL     1      14.631  15.553  20.359  0.00  0.00    +0.000 A 
ATOM      7  C   UNL     1      15.551  16.450  21.097  0.00  0.00    +0.000 A 
ATOM      8  C   UNL     1      13.097  15.356  18.403  0.00  0.00    +0.000 A 
ATOM      9  C   UNL     1      13.645  18.005  17.694  0.00  0.00    +0.000 A 
ATOM     10  C   UNL     1      12.765  17.244  16.927  0.00  0.00    +0.000 A 
ATOM     11  C   UNL     1      12.491  15.921  17.280  0.00  0.00    +0.000 A 
ENDROOT
BRANCH   5  12
ATOM     12  C   UNL     1      16.625  18.666  21.322  0.00  0.00    +0.000 A 
ATOM     13  C   UNL     1      18.009  18.539  21.203  0.00  0.00    +0.000 A 
ATOM     14  C   UNL     1      16.083  19.704  22.079  0.00  0.00    +0.000 A 
ATOM     15  C   UNL     1      18.851  19.449  21.842  0.00  0.00    +0.000 A 
ATOM     16  C   UNL     1      16.925  20.615  22.718  0.00  0.00    +0.000 A 
ATOM     17  C   UNL     1      18.310  20.486  22.599  0.00  0.00    +0.000 A 
BRANCH  17  18
ATOM     18  O   UNL     1      19.131  21.375  23.222  0.00  0.00    +0.000 OA
ATOM     19  H   UNL     1      18.784  21.554  24.113  0.00  0.00    +0.000 HD
ENDBRANCH  17  18
ENDBRANCH   5  12
BRANCH   7  20
ATOM     20  O   UNL     1      16.165  15.960  22.230  0.00  0.00    +0.000 OA
ATOM     21  H   UNL     1      15.890  15.041  22.382  0.00  0.00    +0.000 HD
ENDBRANCH   7  20
BRANCH   8  22
ATOM     22  O   UNL     1      12.795  14.062  18.704  0.00  0.00    +0.000 OA
ATOM     23  H   UNL     1      13.595  13.575  18.955  0.00  0.00    +0.000 HD
ENDBRANCH   8  22
BRANCH  10  24
ATOM     24  O   UNL     1      12.170  17.791  15.831  0.00  0.00    +0.000 OA
ATOM     25  H   UNL     1      11.466  18.394  16.122  0.00  0.00    +0.000 HD
ENDBRANCH  10  24
TORSDOF 5
ENDMDL
