MODEL        5
REMARK  Name = 5280863
REMARK  5 active torsions:
REMARK  status: ('A' for Active; 'I' for Inactive)
REMARK    1  A    between atoms: O_2  and  C_11
REMARK    2  A    between atoms: O_3  and  C_13
REMARK    3  A    between atoms: O_5  and  C_15
REMARK    4  A    between atoms: O_6  and  C_21
REMARK    5  A    between atoms: C_9  and  C_12
REMARK                            x       y       z     vdW  Elec       q    Type
REMARK                         _______ _______ _______ _____ _____    ______ ____
ROOT
ATOM      1  O   UNL     1      36.797 -10.351  -8.467  0.00  0.00    +0.000 OA
ATOM      2  O   UNL     1      33.976 -12.420  -6.377  0.00  0.00    +0.000 OA
ATOM      3  C   UNL     1      36.175 -11.571  -6.463  0.00  0.00    +0.000 A 
ATOM      4  C   UNL     1      37.094 -10.857  -7.229  0.00  0.00    +0.000 A 
ATOM      5  C   UNL     1      35.522 -10.548  -8.974  0.00  0.00    +0.000 A 
ATOM      6  C   UNL     1      34.824 -11.796  -7.001  0.00  0.00    +0.000 A 
ATOM      7  C   UNL     1      34.546 -11.226  -8.341  0.00  0.00    +0.000 A 
ATOM      8  C   UNL     1      36.535 -12.065  -5.206  0.00  0.00    +0.000 A 
ATOM      9  C   UNL     1      38.383 -10.632  -6.741  0.00  0.00    +0.000 A 
ATOM     10  C   UNL     1      38.746 -11.123  -5.488  0.00  0.00    +0.000 A 
ATOM     11  C   UNL     1      37.824 -11.838  -4.721  0.00  0.00    +0.000 A 
ENDROOT
BRANCH   5  12
ATOM     12  C   UNL     1      35.336  -9.955 -10.310  0.00  0.00    +0.000 A 
ATOM     13  C   UNL     1      35.461  -8.577 -10.485  0.00  0.00    +0.000 A 
ATOM     14  C   UNL     1      35.035 -10.772 -11.400  0.00  0.00    +0.000 A 
ATOM     15  C   UNL     1      35.285  -8.016 -11.750  0.00  0.00    +0.000 A 
ATOM     16  C   UNL     1      34.860 -10.211 -12.665  0.00  0.00    +0.000 A 
ATOM     17  C   UNL     1      34.985  -8.832 -12.839  0.00  0.00    +0.000 A 
BRANCH  17  18
ATOM     18  O   UNL     1      34.814  -8.285 -14.074  0.00  0.00    +0.000 OA
ATOM     19  H   UNL     1      34.656  -7.330 -13.976  0.00  0.00    +0.000 HD
ENDBRANCH  17  18
ENDBRANCH   5  12
BRANCH   7  20
ATOM     20  O   UNL     1      33.298 -11.434  -8.888  0.00  0.00    +0.000 OA
ATOM     21  H   UNL     1      32.743 -11.928  -8.264  0.00  0.00    +0.000 HD
ENDBRANCH   7  20
BRANCH   8  22
ATOM     22  O   UNL     1      35.674 -12.769  -4.419  0.00  0.00    +0.000 OA
ATOM     23  H   UNL     1      34.812 -12.327  -4.379  0.00  0.00    +0.000 HD
ENDBRANCH   8  22
BRANCH  10  24
ATOM     24  O   UNL     1      40.002 -10.905  -5.010  0.00  0.00    +0.000 OA
ATOM     25  H   UNL     1      40.085  -9.970  -4.757  0.00  0.00    +0.000 HD
ENDBRANCH  10  24
TORSDOF 5
ENDMDL
