MODEL        4
REMARK  Name = 5280343
REMARK  6 active torsions:
REMARK  status: ('A' for Active; 'I' for Inactive)
REMARK    1  A    between atoms: O_2  and  C_12
REMARK    2  A    between atoms: O_3  and  C_14
REMARK    3  A    between atoms: O_5  and  C_16
REMARK    4  A    between atoms: O_6  and  C_20
REMARK    5  A    between atoms: O_7  and  C_22
REMARK    6  A    between atoms: C_10  and  C_11
REMARK                            x       y       z     vdW  Elec       q    Type
REMARK                         _______ _______ _______ _____ _____    ______ ____
ROOT
ATOM      1  O   UNL     1     -30.309-109.769 196.895  0.00  0.00    +0.000 OA
ATOM      2  O   UNL     1     -30.074-111.783 193.360  0.00  0.00    +0.000 OA
ATOM      3  C   UNL     1     -31.275-110.285 194.729  0.00  0.00    +0.000 A 
ATOM      4  C   UNL     1     -31.297-109.625 195.956  0.00  0.00    +0.000 A 
ATOM      5  C   UNL     1     -29.235-110.597 196.604  0.00  0.00    +0.000 A 
ATOM      6  C   UNL     1     -29.098-111.295 195.462  0.00  0.00    +0.000 A 
ATOM      7  C   UNL     1     -30.145-111.174 194.419  0.00  0.00    +0.000 A 
ATOM      8  C   UNL     1     -32.311-110.100 193.811  0.00  0.00    +0.000 A 
ATOM      9  C   UNL     1     -32.358-108.778 196.275  0.00  0.00    +0.000 A 
ATOM     10  C   UNL     1     -33.396-108.591 195.360  0.00  0.00    +0.000 A 
ATOM     11  C   UNL     1     -33.371-109.252 194.130  0.00  0.00    +0.000 A 
ENDROOT
BRANCH   5  12
ATOM     12  C   UNL     1     -28.247-110.662 197.695  0.00  0.00    +0.000 A 
ATOM     13  C   UNL     1     -27.076-111.400 197.533  0.00  0.00    +0.000 A 
ATOM     14  C   UNL     1     -28.484-109.983 198.892  0.00  0.00    +0.000 A 
ATOM     15  C   UNL     1     -26.140-111.460 198.565  0.00  0.00    +0.000 A 
ATOM     16  C   UNL     1     -27.549-110.044 199.925  0.00  0.00    +0.000 A 
ATOM     17  C   UNL     1     -26.377-110.783 199.762  0.00  0.00    +0.000 A 
BRANCH  15  18
ATOM     18  O   UNL     1     -24.999-112.186 198.396  0.00  0.00    +0.000 OA
ATOM     19  H   UNL     1     -24.442-112.111 199.188  0.00  0.00    +0.000 HD
ENDBRANCH  15  18
BRANCH  17  20
ATOM     20  O   UNL     1     -25.470-110.833 200.777  0.00  0.00    +0.000 OA
ATOM     21  H   UNL     1     -24.711-111.377 200.512  0.00  0.00    +0.000 HD
ENDBRANCH  17  20
ENDBRANCH   5  12
BRANCH   6  22
ATOM     22  O   UNL     1     -28.033-112.135 195.217  0.00  0.00    +0.000 OA
ATOM     23  H   UNL     1     -28.066-112.449 194.300  0.00  0.00    +0.000 HD
ENDBRANCH   6  22
BRANCH   8  24
ATOM     24  O   UNL     1     -32.338-110.720 192.597  0.00  0.00    +0.000 OA
ATOM     25  H   UNL     1     -31.838-111.550 192.629  0.00  0.00    +0.000 HD
ENDBRANCH   8  24
BRANCH  10  26
ATOM     26  O   UNL     1     -34.432-107.765 195.667  0.00  0.00    +0.000 OA
ATOM     27  H   UNL     1     -34.158-106.844 195.517  0.00  0.00    +0.000 HD
ENDBRANCH  10  26
TORSDOF 6
ENDMDL
