MODEL        4
REMARK  Name = 5280343
REMARK  6 active torsions:
REMARK  status: ('A' for Active; 'I' for Inactive)
REMARK    1  A    between atoms: O_2  and  C_12
REMARK    2  A    between atoms: O_3  and  C_14
REMARK    3  A    between atoms: O_5  and  C_16
REMARK    4  A    between atoms: O_6  and  C_20
REMARK    5  A    between atoms: O_7  and  C_22
REMARK    6  A    between atoms: C_10  and  C_11
REMARK                            x       y       z     vdW  Elec       q    Type
REMARK                         _______ _______ _______ _____ _____    ______ ____
ROOT
ATOM      1  O   UNL     1      12.748  12.729  15.622  0.00  0.00    +0.000 OA
ATOM      2  O   UNL     1      10.654  13.387  12.188  0.00  0.00    +0.000 OA
ATOM      3  C   UNL     1      10.806  13.684  14.523  0.00  0.00    +0.000 A 
ATOM      4  C   UNL     1      11.568  13.425  15.660  0.00  0.00    +0.000 A 
ATOM      5  C   UNL     1      13.210  12.276  14.396  0.00  0.00    +0.000 A 
ATOM      6  C   UNL     1      12.567  12.452  13.227  0.00  0.00    +0.000 A 
ATOM      7  C   UNL     1      11.283  13.194  13.220  0.00  0.00    +0.000 A 
ATOM      8  C   UNL     1       9.609  14.397  14.623  0.00  0.00    +0.000 A 
ATOM      9  C   UNL     1      11.136  13.876  16.908  0.00  0.00    +0.000 A 
ATOM     10  C   UNL     1       9.941  14.590  17.012  0.00  0.00    +0.000 A 
ATOM     11  C   UNL     1       9.180  14.849  15.871  0.00  0.00    +0.000 A 
ENDROOT
BRANCH   5  12
ATOM     12  C   UNL     1      14.485  11.546  14.495  0.00  0.00    +0.000 A 
ATOM     13  C   UNL     1      14.524  10.287  15.094  0.00  0.00    +0.000 A 
ATOM     14  C   UNL     1      15.655  12.115  13.990  0.00  0.00    +0.000 A 
ATOM     15  C   UNL     1      15.733   9.595  15.187  0.00  0.00    +0.000 A 
ATOM     16  C   UNL     1      16.864  11.424  14.084  0.00  0.00    +0.000 A 
ATOM     17  C   UNL     1      16.902  10.165  14.683  0.00  0.00    +0.000 A 
BRANCH  15  18
ATOM     18  O   UNL     1      15.759   8.367  15.774  0.00  0.00    +0.000 OA
ATOM     19  H   UNL     1      16.667   8.023  15.775  0.00  0.00    +0.000 HD
ENDBRANCH  15  18
BRANCH  17  20
ATOM     20  O   UNL     1      18.088   9.499  14.766  0.00  0.00    +0.000 OA
ATOM     21  H   UNL     1      17.953   8.643  15.203  0.00  0.00    +0.000 HD
ENDBRANCH  17  20
ENDBRANCH   5  12
BRANCH   6  22
ATOM     22  O   UNL     1      13.037  11.959  12.028  0.00  0.00    +0.000 OA
ATOM     23  H   UNL     1      12.439  12.217  11.309  0.00  0.00    +0.000 HD
ENDBRANCH   6  22
BRANCH   8  24
ATOM     24  O   UNL     1       8.828  14.677  13.542  0.00  0.00    +0.000 OA
ATOM     25  H   UNL     1       9.375  14.937  12.785  0.00  0.00    +0.000 HD
ENDBRANCH   8  24
BRANCH  10  26
ATOM     26  O   UNL     1       9.517  15.032  18.226  0.00  0.00    +0.000 OA
ATOM     27  H   UNL     1      10.008  14.563  18.923  0.00  0.00    +0.000 HD
ENDBRANCH  10  26
TORSDOF 6
ENDMDL
