MODEL        4
REMARK  Name = 5280343
REMARK  6 active torsions:
REMARK  status: ('A' for Active; 'I' for Inactive)
REMARK    1  A    between atoms: O_2  and  C_12
REMARK    2  A    between atoms: O_3  and  C_14
REMARK    3  A    between atoms: O_5  and  C_16
REMARK    4  A    between atoms: O_6  and  C_20
REMARK    5  A    between atoms: O_7  and  C_22
REMARK    6  A    between atoms: C_10  and  C_11
REMARK                            x       y       z     vdW  Elec       q    Type
REMARK                         _______ _______ _______ _____ _____    ______ ____
ROOT
ATOM      1  O   UNL     1     -14.807  -7.587  -6.362  0.00  0.00    +0.000 OA
ATOM      2  O   UNL     1     -17.225  -9.745  -8.833  0.00  0.00    +0.000 OA
ATOM      3  C   UNL     1     -15.783  -9.725  -6.967  0.00  0.00    +0.000 A 
ATOM      4  C   UNL     1     -14.970  -8.933  -6.159  0.00  0.00    +0.000 A 
ATOM      5  C   UNL     1     -15.491  -6.988  -7.408  0.00  0.00    +0.000 A 
ATOM      6  C   UNL     1     -16.298  -7.640  -8.264  0.00  0.00    +0.000 A 
ATOM      7  C   UNL     1     -16.501  -9.098  -8.087  0.00  0.00    +0.000 A 
ATOM      8  C   UNL     1     -15.910 -11.093  -6.713  0.00  0.00    +0.000 A 
ATOM      9  C   UNL     1     -14.276  -9.504  -5.092  0.00  0.00    +0.000 A 
ATOM     10  C   UNL     1     -14.401 -10.871  -4.835  0.00  0.00    +0.000 A 
ATOM     11  C   UNL     1     -15.216 -11.663  -5.645  0.00  0.00    +0.000 A 
ENDROOT
BRANCH   5  12
ATOM     12  C   UNL     1     -15.228  -5.542  -7.514  0.00  0.00    +0.000 A 
ATOM     13  C   UNL     1     -15.352  -4.726  -6.390  0.00  0.00    +0.000 A 
ATOM     14  C   UNL     1     -14.854  -4.989  -8.739  0.00  0.00    +0.000 A 
ATOM     15  C   UNL     1     -15.101  -3.357  -6.490  0.00  0.00    +0.000 A 
ATOM     16  C   UNL     1     -14.605  -3.620  -8.840  0.00  0.00    +0.000 A 
ATOM     17  C   UNL     1     -14.729  -2.804  -7.716  0.00  0.00    +0.000 A 
BRANCH  15  18
ATOM     18  O   UNL     1     -15.227  -2.570  -5.386  0.00  0.00    +0.000 OA
ATOM     19  H   UNL     1     -14.625  -1.810  -5.454  0.00  0.00    +0.000 HD
ENDBRANCH  15  18
BRANCH  17  20
ATOM     20  O   UNL     1     -14.480  -1.469  -7.826  0.00  0.00    +0.000 OA
ATOM     21  H   UNL     1     -14.451  -1.068  -6.943  0.00  0.00    +0.000 HD
ENDBRANCH  17  20
ENDBRANCH   5  12
BRANCH   6  22
ATOM     22  O   UNL     1     -16.939  -7.020  -9.315  0.00  0.00    +0.000 OA
ATOM     23  H   UNL     1     -17.230  -7.683  -9.961  0.00  0.00    +0.000 HD
ENDBRANCH   6  22
BRANCH   8  24
ATOM     24  O   UNL     1     -16.691 -11.912  -7.472  0.00  0.00    +0.000 OA
ATOM     25  H   UNL     1     -17.565 -11.516  -7.611  0.00  0.00    +0.000 HD
ENDBRANCH   8  24
BRANCH  10  26
ATOM     26  O   UNL     1     -13.726 -11.430  -3.795  0.00  0.00    +0.000 OA
ATOM     27  H   UNL     1     -13.531 -12.359  -4.008  0.00  0.00    +0.000 HD
ENDBRANCH  10  26
TORSDOF 6
ENDMDL
