MODEL        5
REMARK  Name = 5280863
REMARK  5 active torsions:
REMARK  status: ('A' for Active; 'I' for Inactive)
REMARK    1  A    between atoms: O_2  and  C_11
REMARK    2  A    between atoms: O_3  and  C_13
REMARK    3  A    between atoms: O_5  and  C_15
REMARK    4  A    between atoms: O_6  and  C_21
REMARK    5  A    between atoms: C_9  and  C_12
REMARK                            x       y       z     vdW  Elec       q    Type
REMARK                         _______ _______ _______ _____ _____    ______ ____
ROOT
ATOM      1  O   UNL     1      22.726  -1.329   7.998  0.00  0.00    +0.000 OA
ATOM      2  O   UNL     1      23.659  -0.469   4.125  0.00  0.00    +0.000 OA
ATOM      3  C   UNL     1      23.367   0.314   6.330  0.00  0.00    +0.000 A 
ATOM      4  C   UNL     1      23.037  -0.045   7.635  0.00  0.00    +0.000 A 
ATOM      5  C   UNL     1      22.753  -2.316   7.024  0.00  0.00    +0.000 A 
ATOM      6  C   UNL     1      23.383  -0.725   5.290  0.00  0.00    +0.000 A 
ATOM      7  C   UNL     1      23.045  -2.100   5.728  0.00  0.00    +0.000 A 
ATOM      8  C   UNL     1      23.674   1.642   6.020  0.00  0.00    +0.000 A 
ATOM      9  C   UNL     1      23.013   0.924   8.641  0.00  0.00    +0.000 A 
ATOM     10  C   UNL     1      23.319   2.249   8.334  0.00  0.00    +0.000 A 
ATOM     11  C   UNL     1      23.650   2.608   7.026  0.00  0.00    +0.000 A 
ENDROOT
BRANCH   5  12
ATOM     12  C   UNL     1      22.399  -3.647   7.545  0.00  0.00    +0.000 A 
ATOM     13  C   UNL     1      21.490  -4.449   6.854  0.00  0.00    +0.000 A 
ATOM     14  C   UNL     1      22.973  -4.108   8.730  0.00  0.00    +0.000 A 
ATOM     15  C   UNL     1      21.155  -5.710   7.347  0.00  0.00    +0.000 A 
ATOM     16  C   UNL     1      22.639  -5.369   9.223  0.00  0.00    +0.000 A 
ATOM     17  C   UNL     1      21.729  -6.170   8.531  0.00  0.00    +0.000 A 
BRANCH  17  18
ATOM     18  O   UNL     1      21.403  -7.401   9.012  0.00  0.00    +0.000 OA
ATOM     19  H   UNL     1      22.142  -8.010   8.845  0.00  0.00    +0.000 HD
ENDBRANCH  17  18
ENDBRANCH   5  12
BRANCH   7  20
ATOM     20  O   UNL     1      23.029  -3.099   4.777  0.00  0.00    +0.000 OA
ATOM     21  H   UNL     1      23.307  -2.741   3.919  0.00  0.00    +0.000 HD
ENDBRANCH   7  20
BRANCH   8  22
ATOM     22  O   UNL     1      24.002   2.044   4.760  0.00  0.00    +0.000 OA
ATOM     23  H   UNL     1      24.519   1.360   4.308  0.00  0.00    +0.000 HD
ENDBRANCH   8  22
BRANCH  10  24
ATOM     24  O   UNL     1      23.296   3.196   9.312  0.00  0.00    +0.000 OA
ATOM     25  H   UNL     1      22.388   3.530   9.407  0.00  0.00    +0.000 HD
ENDBRANCH  10  24
TORSDOF 5
ENDMDL
