MODEL        4
REMARK  Name = 5280343
REMARK  6 active torsions:
REMARK  status: ('A' for Active; 'I' for Inactive)
REMARK    1  A    between atoms: O_2  and  C_12
REMARK    2  A    between atoms: O_3  and  C_14
REMARK    3  A    between atoms: O_5  and  C_16
REMARK    4  A    between atoms: O_6  and  C_20
REMARK    5  A    between atoms: O_7  and  C_22
REMARK    6  A    between atoms: C_10  and  C_11
REMARK                            x       y       z     vdW  Elec       q    Type
REMARK                         _______ _______ _______ _____ _____    ______ ____
ROOT
ATOM      1  O   UNL     1      30.256  85.324  25.083  0.00  0.00    +0.000 OA
ATOM      2  O   UNL     1      26.843  85.035  22.876  0.00  0.00    +0.000 OA
ATOM      3  C   UNL     1      28.961  86.032  23.156  0.00  0.00    +0.000 A 
ATOM      4  C   UNL     1      30.103  86.085  23.954  0.00  0.00    +0.000 A 
ATOM      5  C   UNL     1      29.237  84.454  25.439  0.00  0.00    +0.000 A 
ATOM      6  C   UNL     1      28.083  84.314  24.760  0.00  0.00    +0.000 A 
ATOM      7  C   UNL     1      27.871  85.121  23.535  0.00  0.00    +0.000 A 
ATOM      8  C   UNL     1      28.860  86.833  22.016  0.00  0.00    +0.000 A 
ATOM      9  C   UNL     1      31.150  86.943  23.618  0.00  0.00    +0.000 A 
ATOM     10  C   UNL     1      31.053  87.745  22.480  0.00  0.00    +0.000 A 
ATOM     11  C   UNL     1      29.909  87.689  21.681  0.00  0.00    +0.000 A 
ENDROOT
BRANCH   5  12
ATOM     12  C   UNL     1      29.529  83.698  26.669  0.00  0.00    +0.000 A 
ATOM     13  C   UNL     1      29.378  82.311  26.688  0.00  0.00    +0.000 A 
ATOM     14  C   UNL     1      29.956  84.369  27.815  0.00  0.00    +0.000 A 
ATOM     15  C   UNL     1      29.656  81.595  27.852  0.00  0.00    +0.000 A 
ATOM     16  C   UNL     1      30.233  83.653  28.980  0.00  0.00    +0.000 A 
ATOM     17  C   UNL     1      30.083  82.266  28.999  0.00  0.00    +0.000 A 
BRANCH  15  18
ATOM     18  O   UNL     1      29.505  80.242  27.860  0.00  0.00    +0.000 OA
ATOM     19  H   UNL     1      29.490  79.918  28.775  0.00  0.00    +0.000 HD
ENDBRANCH  15  18
BRANCH  17  20
ATOM     20  O   UNL     1      30.359  81.577  30.142  0.00  0.00    +0.000 OA
ATOM     21  H   UNL     1      29.969  80.691  30.092  0.00  0.00    +0.000 HD
ENDBRANCH  17  20
ENDBRANCH   5  12
BRANCH   6  22
ATOM     22  O   UNL     1      27.074  83.463  25.159  0.00  0.00    +0.000 OA
ATOM     23  H   UNL     1      26.406  83.394  24.459  0.00  0.00    +0.000 HD
ENDBRANCH   6  22
BRANCH   8  24
ATOM     24  O   UNL     1      27.767  86.819  21.203  0.00  0.00    +0.000 OA
ATOM     25  H   UNL     1      26.953  86.848  21.727  0.00  0.00    +0.000 HD
ENDBRANCH   8  24
BRANCH  10  26
ATOM     26  O   UNL     1      32.073  88.582  22.149  0.00  0.00    +0.000 OA
ATOM     27  H   UNL     1      32.481  88.272  21.322  0.00  0.00    +0.000 HD
ENDBRANCH  10  26
TORSDOF 6
ENDMDL
