MODEL        4
REMARK  Name = 5280343
REMARK  6 active torsions:
REMARK  status: ('A' for Active; 'I' for Inactive)
REMARK    1  A    between atoms: O_2  and  C_12
REMARK    2  A    between atoms: O_3  and  C_14
REMARK    3  A    between atoms: O_5  and  C_16
REMARK    4  A    between atoms: O_6  and  C_20
REMARK    5  A    between atoms: O_7  and  C_22
REMARK    6  A    between atoms: C_10  and  C_11
REMARK                            x       y       z     vdW  Elec       q    Type
REMARK                         _______ _______ _______ _____ _____    ______ ____
ROOT
ATOM      1  O   UNL     1       8.036   6.228  93.707  0.00  0.00    +0.000 OA
ATOM      2  O   UNL     1      11.132   8.877  93.769  0.00  0.00    +0.000 OA
ATOM      3  C   UNL     1       8.927   8.365  94.433  0.00  0.00    +0.000 A 
ATOM      4  C   UNL     1       7.907   7.418  94.373  0.00  0.00    +0.000 A 
ATOM      5  C   UNL     1       9.238   5.949  93.076  0.00  0.00    +0.000 A 
ATOM      6  C   UNL     1      10.297   6.780  93.051  0.00  0.00    +0.000 A 
ATOM      7  C   UNL     1      10.201   8.081  93.755  0.00  0.00    +0.000 A 
ATOM      8  C   UNL     1       8.738   9.562  95.127  0.00  0.00    +0.000 A 
ATOM      9  C   UNL     1       6.688   7.664  95.006  0.00  0.00    +0.000 A 
ATOM     10  C   UNL     1       6.495   8.859  95.701  0.00  0.00    +0.000 A 
ATOM     11  C   UNL     1       7.519   9.806  95.760  0.00  0.00    +0.000 A 
ENDROOT
BRANCH   5  12
ATOM     12  C   UNL     1       9.243   4.640  92.399  0.00  0.00    +0.000 A 
ATOM     13  C   UNL     1       9.237   4.575  91.006  0.00  0.00    +0.000 A 
ATOM     14  C   UNL     1       9.256   3.466  93.152  0.00  0.00    +0.000 A 
ATOM     15  C   UNL     1       9.243   3.336  90.365  0.00  0.00    +0.000 A 
ATOM     16  C   UNL     1       9.261   2.227  92.512  0.00  0.00    +0.000 A 
ATOM     17  C   UNL     1       9.254   2.161  91.119  0.00  0.00    +0.000 A 
BRANCH  15  18
ATOM     18  O   UNL     1       9.234   3.284  89.004  0.00  0.00    +0.000 OA
ATOM     19  H   UNL     1       9.262   2.359  88.711  0.00  0.00    +0.000 HD
ENDBRANCH  15  18
BRANCH  17  20
ATOM     20  O   UNL     1       9.261   0.945  90.505  0.00  0.00    +0.000 OA
ATOM     21  H   UNL     1       8.942   1.037  89.593  0.00  0.00    +0.000 HD
ENDBRANCH  17  20
ENDBRANCH   5  12
BRANCH   6  22
ATOM     22  O   UNL     1      11.468   6.487  92.387  0.00  0.00    +0.000 OA
ATOM     23  H   UNL     1      11.998   7.292  92.283  0.00  0.00    +0.000 HD
ENDBRANCH   6  22
BRANCH   8  24
ATOM     24  O   UNL     1       9.703  10.520  95.217  0.00  0.00    +0.000 OA
ATOM     25  H   UNL     1      10.563  10.119  95.414  0.00  0.00    +0.000 HD
ENDBRANCH   8  24
BRANCH  10  26
ATOM     26  O   UNL     1       5.308   9.102  96.319  0.00  0.00    +0.000 OA
ATOM     27  H   UNL     1       4.607   9.154  95.648  0.00  0.00    +0.000 HD
ENDBRANCH  10  26
TORSDOF 6
ENDMDL
