MODEL        5
REMARK  Name = 5280863
REMARK  5 active torsions:
REMARK  status: ('A' for Active; 'I' for Inactive)
REMARK    1  A    between atoms: O_2  and  C_11
REMARK    2  A    between atoms: O_3  and  C_13
REMARK    3  A    between atoms: O_5  and  C_15
REMARK    4  A    between atoms: O_6  and  C_21
REMARK    5  A    between atoms: C_9  and  C_12
REMARK                            x       y       z     vdW  Elec       q    Type
REMARK                         _______ _______ _______ _____ _____    ______ ____
ROOT
ATOM      1  O   UNL     1      31.030  -8.318   4.203  0.00  0.00    +0.000 OA
ATOM      2  O   UNL     1      32.660 -11.547   6.078  0.00  0.00    +0.000 OA
ATOM      3  C   UNL     1      33.011  -9.542   4.888  0.00  0.00    +0.000 A 
ATOM      4  C   UNL     1      32.391  -8.464   4.261  0.00  0.00    +0.000 A 
ATOM      5  C   UNL     1      30.236  -9.281   4.806  0.00  0.00    +0.000 A 
ATOM      6  C   UNL     1      32.173 -10.575   5.518  0.00  0.00    +0.000 A 
ATOM      7  C   UNL     1      30.707 -10.373   5.435  0.00  0.00    +0.000 A 
ATOM      8  C   UNL     1      34.405  -9.638   4.915  0.00  0.00    +0.000 A 
ATOM      9  C   UNL     1      33.164  -7.471   3.654  0.00  0.00    +0.000 A 
ATOM     10  C   UNL     1      34.555  -7.564   3.679  0.00  0.00    +0.000 A 
ATOM     11  C   UNL     1      35.174  -8.645   4.308  0.00  0.00    +0.000 A 
ENDROOT
BRANCH   5  12
ATOM     12  C   UNL     1      28.795  -9.005   4.670  0.00  0.00    +0.000 A 
ATOM     13  C   UNL     1      28.190  -9.055   3.414  0.00  0.00    +0.000 A 
ATOM     14  C   UNL     1      28.034  -8.697   5.798  0.00  0.00    +0.000 A 
ATOM     15  C   UNL     1      26.826  -8.794   3.286  0.00  0.00    +0.000 A 
ATOM     16  C   UNL     1      26.670  -8.436   5.670  0.00  0.00    +0.000 A 
ATOM     17  C   UNL     1      26.066  -8.485   4.413  0.00  0.00    +0.000 A 
BRANCH  17  18
ATOM     18  O   UNL     1      24.734  -8.231   4.288  0.00  0.00    +0.000 OA
ATOM     19  H   UNL     1      24.567  -7.303   4.524  0.00  0.00    +0.000 HD
ENDBRANCH  17  18
ENDBRANCH   5  12
BRANCH   7  20
ATOM     20  O   UNL     1      29.888 -11.331   5.996  0.00  0.00    +0.000 OA
ATOM     21  H   UNL     1      30.427 -12.044   6.374  0.00  0.00    +0.000 HD
ENDBRANCH   7  20
BRANCH   8  22
ATOM     22  O   UNL     1      35.058 -10.672   5.514  0.00  0.00    +0.000 OA
ATOM     23  H   UNL     1      34.653 -11.518   5.271  0.00  0.00    +0.000 HD
ENDBRANCH   8  22
BRANCH  10  24
ATOM     24  O   UNL     1      35.311  -6.598   3.088  0.00  0.00    +0.000 OA
ATOM     25  H   UNL     1      35.720  -6.050   3.779  0.00  0.00    +0.000 HD
ENDBRANCH  10  24
TORSDOF 5
ENDMDL
