MODEL        5
REMARK  Name = 5280863
REMARK  5 active torsions:
REMARK  status: ('A' for Active; 'I' for Inactive)
REMARK    1  A    between atoms: O_2  and  C_11
REMARK    2  A    between atoms: O_3  and  C_13
REMARK    3  A    between atoms: O_5  and  C_15
REMARK    4  A    between atoms: O_6  and  C_21
REMARK    5  A    between atoms: C_9  and  C_12
REMARK                            x       y       z     vdW  Elec       q    Type
REMARK                         _______ _______ _______ _____ _____    ______ ____
ROOT
ATOM      1  O   UNL     1     152.475 172.319 143.574  0.00  0.00    +0.000 OA
ATOM      2  O   UNL     1     152.136 171.860 139.539  0.00  0.00    +0.000 OA
ATOM      3  C   UNL     1     151.062 172.249 141.602  0.00  0.00    +0.000 A 
ATOM      4  C   UNL     1     151.245 172.395 142.975  0.00  0.00    +0.000 A 
ATOM      5  C   UNL     1     153.587 172.100 142.775  0.00  0.00    +0.000 A 
ATOM      6  C   UNL     1     152.235 172.002 140.750  0.00  0.00    +0.000 A 
ATOM      7  C   UNL     1     153.546 171.933 141.440  0.00  0.00    +0.000 A 
ATOM      8  C   UNL     1     149.782 172.335 141.047  0.00  0.00    +0.000 A 
ATOM      9  C   UNL     1     150.146 172.628 143.805  0.00  0.00    +0.000 A 
ATOM     10  C   UNL     1     148.868 172.715 143.255  0.00  0.00    +0.000 A 
ATOM     11  C   UNL     1     148.686 172.569 141.879  0.00  0.00    +0.000 A 
ENDROOT
BRANCH   5  12
ATOM     12  C   UNL     1     154.843 172.039 143.542  0.00  0.00    +0.000 A 
ATOM     13  C   UNL     1     155.459 170.810 143.778  0.00  0.00    +0.000 A 
ATOM     14  C   UNL     1     155.418 173.212 144.032  0.00  0.00    +0.000 A 
ATOM     15  C   UNL     1     156.648 170.753 144.504  0.00  0.00    +0.000 A 
ATOM     16  C   UNL     1     156.608 173.155 144.758  0.00  0.00    +0.000 A 
ATOM     17  C   UNL     1     157.223 171.924 144.994  0.00  0.00    +0.000 A 
BRANCH  17  18
ATOM     18  O   UNL     1     158.384 171.869 145.702  0.00  0.00    +0.000 OA
ATOM     19  H   UNL     1     158.318 172.472 146.462  0.00  0.00    +0.000 HD
ENDBRANCH  17  18
ENDBRANCH   5  12
BRANCH   7  20
ATOM     20  O   UNL     1     154.667 171.683 140.679  0.00  0.00    +0.000 OA
ATOM     21  H   UNL     1     154.409 171.501 139.761  0.00  0.00    +0.000 HD
ENDBRANCH   7  20
BRANCH   8  22
ATOM     22  O   UNL     1     149.549 172.200 139.711  0.00  0.00    +0.000 OA
ATOM     23  H   UNL     1     150.183 172.726 139.201  0.00  0.00    +0.000 HD
ENDBRANCH   8  22
BRANCH  10  24
ATOM     24  O   UNL     1     147.795 172.942 144.061  0.00  0.00    +0.000 OA
ATOM     25  H   UNL     1     147.425 173.817 143.855  0.00  0.00    +0.000 HD
ENDBRANCH  10  24
TORSDOF 5
ENDMDL
