MODEL        5
REMARK  Name = 5280863
REMARK  5 active torsions:
REMARK  status: ('A' for Active; 'I' for Inactive)
REMARK    1  A    between atoms: O_2  and  C_11
REMARK    2  A    between atoms: O_3  and  C_13
REMARK    3  A    between atoms: O_5  and  C_15
REMARK    4  A    between atoms: O_6  and  C_21
REMARK    5  A    between atoms: C_9  and  C_12
REMARK                            x       y       z     vdW  Elec       q    Type
REMARK                         _______ _______ _______ _____ _____    ______ ____
ROOT
ATOM      1  O   UNL     1      30.105  85.314  25.047  0.00  0.00    +0.000 OA
ATOM      2  O   UNL     1      26.721  85.021  22.797  0.00  0.00    +0.000 OA
ATOM      3  C   UNL     1      28.836  86.018  23.102  0.00  0.00    +0.000 A 
ATOM      4  C   UNL     1      29.966  86.073  23.915  0.00  0.00    +0.000 A 
ATOM      5  C   UNL     1      29.082  84.445  25.391  0.00  0.00    +0.000 A 
ATOM      6  C   UNL     1      27.740  85.108  23.468  0.00  0.00    +0.000 A 
ATOM      7  C   UNL     1      27.937  84.303  24.698  0.00  0.00    +0.000 A 
ATOM      8  C   UNL     1      28.749  86.818  21.959  0.00  0.00    +0.000 A 
ATOM      9  C   UNL     1      31.019  86.930  23.589  0.00  0.00    +0.000 A 
ATOM     10  C   UNL     1      30.936  87.729  22.450  0.00  0.00    +0.000 A 
ATOM     11  C   UNL     1      29.804  87.673  21.636  0.00  0.00    +0.000 A 
ENDROOT
BRANCH   5  12
ATOM     12  C   UNL     1      29.358  83.691  26.627  0.00  0.00    +0.000 A 
ATOM     13  C   UNL     1      29.970  84.325  27.708  0.00  0.00    +0.000 A 
ATOM     14  C   UNL     1      29.005  82.345  26.716  0.00  0.00    +0.000 A 
ATOM     15  C   UNL     1      30.231  83.611  28.878  0.00  0.00    +0.000 A 
ATOM     16  C   UNL     1      29.265  81.631  27.886  0.00  0.00    +0.000 A 
ATOM     17  C   UNL     1      29.879  82.265  28.967  0.00  0.00    +0.000 A 
BRANCH  17  18
ATOM     18  O   UNL     1      30.133  81.569  30.109  0.00  0.00    +0.000 OA
ATOM     19  H   UNL     1      29.492  80.842  30.183  0.00  0.00    +0.000 HD
ENDBRANCH  17  18
ENDBRANCH   5  12
BRANCH   7  20
ATOM     20  O   UNL     1      26.922  83.454  25.086  0.00  0.00    +0.000 OA
ATOM     21  H   UNL     1      26.269  83.373  24.373  0.00  0.00    +0.000 HD
ENDBRANCH   7  20
BRANCH   8  22
ATOM     22  O   UNL     1      27.667  86.801  21.132  0.00  0.00    +0.000 OA
ATOM     23  H   UNL     1      26.845  86.830  21.646  0.00  0.00    +0.000 HD
ENDBRANCH   8  22
BRANCH  10  24
ATOM     24  O   UNL     1      31.961  88.566  22.130  0.00  0.00    +0.000 OA
ATOM     25  H   UNL     1      32.488  88.162  21.420  0.00  0.00    +0.000 HD
ENDBRANCH  10  24
TORSDOF 5
ENDMDL
