MODEL        4
REMARK  Name = 5280343
REMARK  6 active torsions:
REMARK  status: ('A' for Active; 'I' for Inactive)
REMARK    1  A    between atoms: O_2  and  C_12
REMARK    2  A    between atoms: O_3  and  C_14
REMARK    3  A    between atoms: O_5  and  C_16
REMARK    4  A    between atoms: O_6  and  C_20
REMARK    5  A    between atoms: O_7  and  C_22
REMARK    6  A    between atoms: C_10  and  C_11
REMARK                            x       y       z     vdW  Elec       q    Type
REMARK                         _______ _______ _______ _____ _____    ______ ____
ROOT
ATOM      1  O   UNL     1      14.541 121.699  16.409  0.00  0.00    +0.000 OA
ATOM      2  O   UNL     1      11.594 120.988  19.133  0.00  0.00    +0.000 OA
ATOM      3  C   UNL     1      13.746 121.848  18.697  0.00  0.00    +0.000 A 
ATOM      4  C   UNL     1      14.715 122.062  17.719  0.00  0.00    +0.000 A 
ATOM      5  C   UNL     1      13.343 121.106  16.040  0.00  0.00    +0.000 A 
ATOM      6  C   UNL     1      12.333 120.836  16.887  0.00  0.00    +0.000 A 
ATOM      7  C   UNL     1      12.479 121.207  18.316  0.00  0.00    +0.000 A 
ATOM      8  C   UNL     1      13.980 122.238  20.018  0.00  0.00    +0.000 A 
ATOM      9  C   UNL     1      15.926 122.666  18.056  0.00  0.00    +0.000 A 
ATOM     10  C   UNL     1      16.163 123.058  19.375  0.00  0.00    +0.000 A 
ATOM     11  C   UNL     1      15.191 122.843  20.353  0.00  0.00    +0.000 A 
ENDROOT
BRANCH   5  12
ATOM     12  C   UNL     1      13.287 120.767  14.607  0.00  0.00    +0.000 A 
ATOM     13  C   UNL     1      12.223 121.217  13.826  0.00  0.00    +0.000 A 
ATOM     14  C   UNL     1      14.298 119.996  14.033  0.00  0.00    +0.000 A 
ATOM     15  C   UNL     1      12.170 120.897  12.469  0.00  0.00    +0.000 A 
ATOM     16  C   UNL     1      14.245 119.675  12.676  0.00  0.00    +0.000 A 
ATOM     17  C   UNL     1      13.181 120.125  11.894  0.00  0.00    +0.000 A 
BRANCH  15  18
ATOM     18  O   UNL     1      11.126 121.340  11.715  0.00  0.00    +0.000 OA
ATOM     19  H   UNL     1      11.168 120.942  10.830  0.00  0.00    +0.000 HD
ENDBRANCH  15  18
BRANCH  17  20
ATOM     20  O   UNL     1      13.141 119.808  10.570  0.00  0.00    +0.000 OA
ATOM     21  H   UNL     1      12.219 119.720  10.282  0.00  0.00    +0.000 HD
ENDBRANCH  17  20
ENDBRANCH   5  12
BRANCH   6  22
ATOM     22  O   UNL     1      11.167 120.215  16.495  0.00  0.00    +0.000 OA
ATOM     23  H   UNL     1      10.516 120.251  17.213  0.00  0.00    +0.000 HD
ENDBRANCH   6  22
BRANCH   8  24
ATOM     24  O   UNL     1      13.067 122.052  21.012  0.00  0.00    +0.000 OA
ATOM     25  H   UNL     1      12.184 122.325  20.719  0.00  0.00    +0.000 HD
ENDBRANCH   8  24
BRANCH  10  26
ATOM     26  O   UNL     1      17.343 123.648  19.707  0.00  0.00    +0.000 OA
ATOM     27  H   UNL     1      17.183 124.303  20.407  0.00  0.00    +0.000 HD
ENDBRANCH  10  26
TORSDOF 6
ENDMDL
