MODEL        5
REMARK  Name = 5280863
REMARK  5 active torsions:
REMARK  status: ('A' for Active; 'I' for Inactive)
REMARK    1  A    between atoms: O_2  and  C_11
REMARK    2  A    between atoms: O_3  and  C_13
REMARK    3  A    between atoms: O_5  and  C_15
REMARK    4  A    between atoms: O_6  and  C_21
REMARK    5  A    between atoms: C_9  and  C_12
REMARK                            x       y       z     vdW  Elec       q    Type
REMARK                         _______ _______ _______ _____ _____    ______ ____
ROOT
ATOM      1  O   UNL     1      14.409  39.123  75.450  0.00  0.00    +0.000 OA
ATOM      2  O   UNL     1      11.537  36.719  73.845  0.00  0.00    +0.000 OA
ATOM      3  C   UNL     1      13.292  38.250  73.480  0.00  0.00    +0.000 A 
ATOM      4  C   UNL     1      14.253  39.053  74.091  0.00  0.00    +0.000 A 
ATOM      5  C   UNL     1      13.582  38.350  76.251  0.00  0.00    +0.000 A 
ATOM      6  C   UNL     1      12.403  37.438  74.324  0.00  0.00    +0.000 A 
ATOM      7  C   UNL     1      12.611  37.541  75.788  0.00  0.00    +0.000 A 
ATOM      8  C   UNL     1      13.179  38.221  72.087  0.00  0.00    +0.000 A 
ATOM      9  C   UNL     1      15.108  39.835  73.311  0.00  0.00    +0.000 A 
ATOM     10  C   UNL     1      14.998  39.808  71.921  0.00  0.00    +0.000 A 
ATOM     11  C   UNL     1      14.036  39.002  71.310  0.00  0.00    +0.000 A 
ENDROOT
BRANCH   5  12
ATOM     12  C   UNL     1      13.854  38.518  77.689  0.00  0.00    +0.000 A 
ATOM     13  C   UNL     1      14.388  37.462  78.427  0.00  0.00    +0.000 A 
ATOM     14  C   UNL     1      13.578  39.735  78.313  0.00  0.00    +0.000 A 
ATOM     15  C   UNL     1      14.646  37.621  79.789  0.00  0.00    +0.000 A 
ATOM     16  C   UNL     1      13.836  39.895  79.675  0.00  0.00    +0.000 A 
ATOM     17  C   UNL     1      14.370  38.837  80.413  0.00  0.00    +0.000 A 
BRANCH  17  18
ATOM     18  O   UNL     1      14.622  38.993  81.742  0.00  0.00    +0.000 OA
ATOM     19  H   UNL     1      15.574  38.879  81.896  0.00  0.00    +0.000 HD
ENDBRANCH  17  18
ENDBRANCH   5  12
BRANCH   7  20
ATOM     20  O   UNL     1      11.783  36.811  76.614  0.00  0.00    +0.000 OA
ATOM     21  H   UNL     1      11.318  36.133  76.098  0.00  0.00    +0.000 HD
ENDBRANCH   7  20
BRANCH   8  22
ATOM     22  O   UNL     1      12.258  37.453  71.441  0.00  0.00    +0.000 OA
ATOM     23  H   UNL     1      12.224  36.565  71.827  0.00  0.00    +0.000 HD
ENDBRANCH   8  22
BRANCH  10  24
ATOM     24  O   UNL     1      15.830  40.569  71.158  0.00  0.00    +0.000 OA
ATOM     25  H   UNL     1      16.665  40.088  71.026  0.00  0.00    +0.000 HD
ENDBRANCH  10  24
TORSDOF 5
ENDMDL
