MODEL        4
REMARK  Name = 5280343
REMARK  6 active torsions:
REMARK  status: ('A' for Active; 'I' for Inactive)
REMARK    1  A    between atoms: O_2  and  C_12
REMARK    2  A    between atoms: O_3  and  C_14
REMARK    3  A    between atoms: O_5  and  C_16
REMARK    4  A    between atoms: O_6  and  C_20
REMARK    5  A    between atoms: O_7  and  C_22
REMARK    6  A    between atoms: C_10  and  C_11
REMARK                            x       y       z     vdW  Elec       q    Type
REMARK                         _______ _______ _______ _____ _____    ______ ____
ROOT
ATOM      1  O   UNL     1       1.360  15.576  21.294  0.00  0.00    +0.000 OA
ATOM      2  O   UNL     1       0.260  13.807  17.791  0.00  0.00    +0.000 OA
ATOM      3  C   UNL     1       1.963  14.231  19.367  0.00  0.00    +0.000 A 
ATOM      4  C   UNL     1       2.276  14.860  20.570  0.00  0.00    +0.000 A 
ATOM      5  C   UNL     1       0.062  15.668  20.814  0.00  0.00    +0.000 A 
ATOM      6  C   UNL     1      -0.366  15.115  19.664  0.00  0.00    +0.000 A 
ATOM      7  C   UNL     1       0.592  14.334  18.845  0.00  0.00    +0.000 A 
ATOM      8  C   UNL     1       2.940  13.514  18.671  0.00  0.00    +0.000 A 
ATOM      9  C   UNL     1       3.570  14.779  21.085  0.00  0.00    +0.000 A 
ATOM     10  C   UNL     1       4.549  14.063  20.392  0.00  0.00    +0.000 A 
ATOM     11  C   UNL     1       4.233  13.433  19.187  0.00  0.00    +0.000 A 
ENDROOT
BRANCH   5  12
ATOM     12  C   UNL     1      -0.819  16.464  21.686  0.00  0.00    +0.000 A 
ATOM     13  C   UNL     1      -0.309  17.561  22.379  0.00  0.00    +0.000 A 
ATOM     14  C   UNL     1      -2.165  16.119  21.818  0.00  0.00    +0.000 A 
ATOM     15  C   UNL     1      -1.144  18.315  23.204  0.00  0.00    +0.000 A 
ATOM     16  C   UNL     1      -3.000  16.872  22.644  0.00  0.00    +0.000 A 
ATOM     17  C   UNL     1      -2.490  17.970  23.337  0.00  0.00    +0.000 A 
BRANCH  15  18
ATOM     18  O   UNL     1      -0.635  19.384  23.877  0.00  0.00    +0.000 OA
ATOM     19  H   UNL     1      -1.329  19.790  24.421  0.00  0.00    +0.000 HD
ENDBRANCH  15  18
BRANCH  17  20
ATOM     20  O   UNL     1      -3.316  18.700  24.138  0.00  0.00    +0.000 OA
ATOM     21  H   UNL     1      -2.826  19.013  24.914  0.00  0.00    +0.000 HD
ENDBRANCH  17  20
ENDBRANCH   5  12
BRANCH   6  22
ATOM     22  O   UNL     1      -1.656  15.252  19.198  0.00  0.00    +0.000 OA
ATOM     23  H   UNL     1      -1.759  14.765  18.365  0.00  0.00    +0.000 HD
ENDBRANCH   6  22
BRANCH   8  24
ATOM     24  O   UNL     1       2.686  12.881  17.491  0.00  0.00    +0.000 OA
ATOM     25  H   UNL     1       2.212  13.470  16.884  0.00  0.00    +0.000 HD
ENDBRANCH   8  24
BRANCH  10  26
ATOM     26  O   UNL     1       5.812  13.982  20.892  0.00  0.00    +0.000 OA
ATOM     27  H   UNL     1       6.372  14.639  20.444  0.00  0.00    +0.000 HD
ENDBRANCH  10  26
TORSDOF 6
ENDMDL
