MODEL        4
REMARK  Name = 5280343
REMARK  6 active torsions:
REMARK  status: ('A' for Active; 'I' for Inactive)
REMARK    1  A    between atoms: O_2  and  C_12
REMARK    2  A    between atoms: O_3  and  C_14
REMARK    3  A    between atoms: O_5  and  C_16
REMARK    4  A    between atoms: O_6  and  C_20
REMARK    5  A    between atoms: O_7  and  C_22
REMARK    6  A    between atoms: C_10  and  C_11
REMARK                            x       y       z     vdW  Elec       q    Type
REMARK                         _______ _______ _______ _____ _____    ______ ____
ROOT
ATOM      1  O   UNL     1      27.703   7.232  60.227  0.00  0.00    +0.000 OA
ATOM      2  O   UNL     1      28.036   3.337  61.378  0.00  0.00    +0.000 OA
ATOM      3  C   UNL     1      28.359   4.957  59.695  0.00  0.00    +0.000 A 
ATOM      4  C   UNL     1      28.218   6.303  59.362  0.00  0.00    +0.000 A 
ATOM      5  C   UNL     1      27.319   6.817  61.493  0.00  0.00    +0.000 A 
ATOM      6  C   UNL     1      27.395   5.548  61.935  0.00  0.00    +0.000 A 
ATOM      7  C   UNL     1      27.941   4.507  61.031  0.00  0.00    +0.000 A 
ATOM      8  C   UNL     1      28.889   4.054  58.770  0.00  0.00    +0.000 A 
ATOM      9  C   UNL     1      28.605   6.754  58.100  0.00  0.00    +0.000 A 
ATOM     10  C   UNL     1      29.135   5.854  57.173  0.00  0.00    +0.000 A 
ATOM     11  C   UNL     1      29.276   4.507  57.509  0.00  0.00    +0.000 A 
ENDROOT
BRANCH   5  12
ATOM     12  C   UNL     1      26.785   7.913  62.320  0.00  0.00    +0.000 A 
ATOM     13  C   UNL     1      25.432   7.938  62.656  0.00  0.00    +0.000 A 
ATOM     14  C   UNL     1      27.634   8.926  62.768  0.00  0.00    +0.000 A 
ATOM     15  C   UNL     1      24.927   8.975  63.441  0.00  0.00    +0.000 A 
ATOM     16  C   UNL     1      27.129   9.963  63.551  0.00  0.00    +0.000 A 
ATOM     17  C   UNL     1      25.776   9.989  63.888  0.00  0.00    +0.000 A 
BRANCH  15  18
ATOM     18  O   UNL     1      23.603   8.991  63.762  0.00  0.00    +0.000 OA
ATOM     19  H   UNL     1      23.415   9.747  64.340  0.00  0.00    +0.000 HD
ENDBRANCH  15  18
BRANCH  17  20
ATOM     20  O   UNL     1      25.295  11.006  64.656  0.00  0.00    +0.000 OA
ATOM     21  H   UNL     1      24.361  10.846  64.864  0.00  0.00    +0.000 HD
ENDBRANCH  17  20
ENDBRANCH   5  12
BRANCH   6  22
ATOM     22  O   UNL     1      26.973   5.162  63.189  0.00  0.00    +0.000 OA
ATOM     23  H   UNL     1      27.101   4.207  63.299  0.00  0.00    +0.000 HD
ENDBRANCH   6  22
BRANCH   8  24
ATOM     24  O   UNL     1      29.048   2.728  59.046  0.00  0.00    +0.000 OA
ATOM     25  H   UNL     1      29.090   2.583  60.003  0.00  0.00    +0.000 HD
ENDBRANCH   8  24
BRANCH  10  26
ATOM     26  O   UNL     1      29.514   6.291  55.942  0.00  0.00    +0.000 OA
ATOM     27  H   UNL     1      28.887   6.972  55.641  0.00  0.00    +0.000 HD
ENDBRANCH  10  26
TORSDOF 6
ENDMDL
