MODEL        4
REMARK  Name = 5280343
REMARK  6 active torsions:
REMARK  status: ('A' for Active; 'I' for Inactive)
REMARK    1  A    between atoms: O_2  and  C_12
REMARK    2  A    between atoms: O_3  and  C_14
REMARK    3  A    between atoms: O_5  and  C_16
REMARK    4  A    between atoms: O_6  and  C_20
REMARK    5  A    between atoms: O_7  and  C_22
REMARK    6  A    between atoms: C_10  and  C_11
REMARK                            x       y       z     vdW  Elec       q    Type
REMARK                         _______ _______ _______ _____ _____    ______ ____
ROOT
ATOM      1  O   UNL     1      21.022  -1.188   5.884  0.00  0.00    +0.000 OA
ATOM      2  O   UNL     1      24.864  -2.474   5.448  0.00  0.00    +0.000 OA
ATOM      3  C   UNL     1      23.066  -1.222   4.576  0.00  0.00    +0.000 A 
ATOM      4  C   UNL     1      21.748  -0.818   4.783  0.00  0.00    +0.000 A 
ATOM      5  C   UNL     1      21.628  -1.989   6.839  0.00  0.00    +0.000 A 
ATOM      6  C   UNL     1      22.889  -2.454   6.755  0.00  0.00    +0.000 A 
ATOM      7  C   UNL     1      23.711  -2.083   5.578  0.00  0.00    +0.000 A 
ATOM      8  C   UNL     1      23.757  -0.814   3.433  0.00  0.00    +0.000 A 
ATOM      9  C   UNL     1      21.113  -0.003   3.845  0.00  0.00    +0.000 A 
ATOM     10  C   UNL     1      21.801   0.407   2.702  0.00  0.00    +0.000 A 
ATOM     11  C   UNL     1      23.120   0.001   2.497  0.00  0.00    +0.000 A 
ENDROOT
BRANCH   5  12
ATOM     12  C   UNL     1      20.739  -2.313   7.968  0.00  0.00    +0.000 A 
ATOM     13  C   UNL     1      20.301  -3.623   8.158  0.00  0.00    +0.000 A 
ATOM     14  C   UNL     1      20.336  -1.307   8.848  0.00  0.00    +0.000 A 
ATOM     15  C   UNL     1      19.460  -3.929   9.228  0.00  0.00    +0.000 A 
ATOM     16  C   UNL     1      19.494  -1.613   9.917  0.00  0.00    +0.000 A 
ATOM     17  C   UNL     1      19.056  -2.923  10.108  0.00  0.00    +0.000 A 
BRANCH  15  18
ATOM     18  O   UNL     1      19.036  -5.211   9.404  0.00  0.00    +0.000 OA
ATOM     19  H   UNL     1      18.066  -5.244   9.370  0.00  0.00    +0.000 HD
ENDBRANCH  15  18
BRANCH  17  20
ATOM     20  O   UNL     1      18.236  -3.210  11.157  0.00  0.00    +0.000 OA
ATOM     21  H   UNL     1      18.747  -3.631  11.866  0.00  0.00    +0.000 HD
ENDBRANCH  17  20
ENDBRANCH   5  12
BRANCH   6  22
ATOM     22  O   UNL     1      23.452  -3.276   7.706  0.00  0.00    +0.000 OA
ATOM     23  H   UNL     1      24.362  -3.499   7.452  0.00  0.00    +0.000 HD
ENDBRANCH   6  22
BRANCH   8  24
ATOM     24  O   UNL     1      25.046  -1.181   3.183  0.00  0.00    +0.000 OA
ATOM     25  H   UNL     1      25.251  -2.021   3.620  0.00  0.00    +0.000 HD
ENDBRANCH   8  24
BRANCH  10  26
ATOM     26  O   UNL     1      21.184   1.202   1.787  0.00  0.00    +0.000 OA
ATOM     27  H   UNL     1      20.413   1.624   2.203  0.00  0.00    +0.000 HD
ENDBRANCH  10  26
TORSDOF 6
ENDMDL
