MODEL        5
REMARK  Name = 5280863
REMARK  5 active torsions:
REMARK  status: ('A' for Active; 'I' for Inactive)
REMARK    1  A    between atoms: O_2  and  C_11
REMARK    2  A    between atoms: O_3  and  C_13
REMARK    3  A    between atoms: O_5  and  C_15
REMARK    4  A    between atoms: O_6  and  C_21
REMARK    5  A    between atoms: C_9  and  C_12
REMARK                            x       y       z     vdW  Elec       q    Type
REMARK                         _______ _______ _______ _____ _____    ______ ____
ROOT
ATOM      1  O   UNL     1      29.657  36.482  15.019  0.00  0.00    +0.000 OA
ATOM      2  O   UNL     1      31.083  39.280  12.422  0.00  0.00    +0.000 OA
ATOM      3  C   UNL     1      29.674  38.783  14.247  0.00  0.00    +0.000 A 
ATOM      4  C   UNL     1      29.225  37.780  15.103  0.00  0.00    +0.000 A 
ATOM      5  C   UNL     1      30.592  36.158  14.049  0.00  0.00    +0.000 A 
ATOM      6  C   UNL     1      30.656  38.443  13.206  0.00  0.00    +0.000 A 
ATOM      7  C   UNL     1      31.099  37.028  13.157  0.00  0.00    +0.000 A 
ATOM      8  C   UNL     1      29.196  40.090  14.379  0.00  0.00    +0.000 A 
ATOM      9  C   UNL     1      28.292  38.078  16.098  0.00  0.00    +0.000 A 
ATOM     10  C   UNL     1      27.813  39.380  16.232  0.00  0.00    +0.000 A 
ATOM     11  C   UNL     1      28.265  40.385  15.375  0.00  0.00    +0.000 A 
ENDROOT
BRANCH   5  12
ATOM     12  C   UNL     1      30.970  34.734  14.068  0.00  0.00    +0.000 A 
ATOM     13  C   UNL     1      32.189  34.343  14.621  0.00  0.00    +0.000 A 
ATOM     14  C   UNL     1      30.107  33.776  13.534  0.00  0.00    +0.000 A 
ATOM     15  C   UNL     1      32.547  32.994  14.639  0.00  0.00    +0.000 A 
ATOM     16  C   UNL     1      30.465  32.428  13.552  0.00  0.00    +0.000 A 
ATOM     17  C   UNL     1      31.685  32.037  14.105  0.00  0.00    +0.000 A 
BRANCH  17  18
ATOM     18  O   UNL     1      32.034  30.721  14.124  0.00  0.00    +0.000 OA
ATOM     19  H   UNL     1      32.878  30.626  14.596  0.00  0.00    +0.000 HD
ENDBRANCH  17  18
ENDBRANCH   5  12
BRANCH   7  20
ATOM     20  O   UNL     1      32.003  36.666  12.181  0.00  0.00    +0.000 OA
ATOM     21  H   UNL     1      32.229  37.438  11.637  0.00  0.00    +0.000 HD
ENDBRANCH   7  20
BRANCH   8  22
ATOM     22  O   UNL     1      29.604  41.106  13.568  0.00  0.00    +0.000 OA
ATOM     23  H   UNL     1      29.927  40.759  12.723  0.00  0.00    +0.000 HD
ENDBRANCH   8  22
BRANCH  10  24
ATOM     24  O   UNL     1      26.903  39.674  17.201  0.00  0.00    +0.000 OA
ATOM     25  H   UNL     1      27.341  39.634  18.068  0.00  0.00    +0.000 HD
ENDBRANCH  10  24
TORSDOF 5
ENDMDL
