MODEL        5
REMARK  Name = 5280863
REMARK  5 active torsions:
REMARK  status: ('A' for Active; 'I' for Inactive)
REMARK    1  A    between atoms: O_2  and  C_11
REMARK    2  A    between atoms: O_3  and  C_13
REMARK    3  A    between atoms: O_5  and  C_15
REMARK    4  A    between atoms: O_6  and  C_21
REMARK    5  A    between atoms: C_9  and  C_12
REMARK                            x       y       z     vdW  Elec       q    Type
REMARK                         _______ _______ _______ _____ _____    ______ ____
ROOT
ATOM      1  O   UNL     1       8.990   1.184  16.302  0.00  0.00    +0.000 OA
ATOM      2  O   UNL     1      10.242   4.928  15.295  0.00  0.00    +0.000 OA
ATOM      3  C   UNL     1       8.458   3.395  15.456  0.00  0.00    +0.000 A 
ATOM      4  C   UNL     1       8.094   2.099  15.816  0.00  0.00    +0.000 A 
ATOM      5  C   UNL     1      10.313   1.568  16.453  0.00  0.00    +0.000 A 
ATOM      6  C   UNL     1       9.862   3.806  15.601  0.00  0.00    +0.000 A 
ATOM      7  C   UNL     1      10.795   2.784  16.135  0.00  0.00    +0.000 A 
ATOM      8  C   UNL     1       7.500   4.286  14.964  0.00  0.00    +0.000 A 
ATOM      9  C   UNL     1       6.767   1.685  15.686  0.00  0.00    +0.000 A 
ATOM     10  C   UNL     1       5.809   2.571  15.196  0.00  0.00    +0.000 A 
ATOM     11  C   UNL     1       6.174   3.869  14.837  0.00  0.00    +0.000 A 
ENDROOT
BRANCH   5  12
ATOM     12  C   UNL     1      11.168   0.492  16.983  0.00  0.00    +0.000 A 
ATOM     13  C   UNL     1      12.124   0.776  17.959  0.00  0.00    +0.000 A 
ATOM     14  C   UNL     1      11.021  -0.812  16.510  0.00  0.00    +0.000 A 
ATOM     15  C   UNL     1      12.933  -0.244  18.460  0.00  0.00    +0.000 A 
ATOM     16  C   UNL     1      11.831  -1.832  17.011  0.00  0.00    +0.000 A 
ATOM     17  C   UNL     1      12.787  -1.547  17.987  0.00  0.00    +0.000 A 
BRANCH  17  18
ATOM     18  O   UNL     1      13.577  -2.542  18.477  0.00  0.00    +0.000 OA
ATOM     19  H   UNL     1      13.617  -2.463  19.445  0.00  0.00    +0.000 HD
ENDBRANCH  17  18
ENDBRANCH   5  12
BRANCH   7  20
ATOM     20  O   UNL     1      12.124   3.125  16.265  0.00  0.00    +0.000 OA
ATOM     21  H   UNL     1      12.319   3.907  15.725  0.00  0.00    +0.000 HD
ENDBRANCH   7  20
BRANCH   8  22
ATOM     22  O   UNL     1       7.803   5.563  14.598  0.00  0.00    +0.000 OA
ATOM     23  H   UNL     1       8.368   5.982  15.265  0.00  0.00    +0.000 HD
ENDBRANCH   8  22
BRANCH  10  24
ATOM     24  O   UNL     1       4.514   2.170  15.069  0.00  0.00    +0.000 OA
ATOM     25  H   UNL     1       4.432   1.617  14.273  0.00  0.00    +0.000 HD
ENDBRANCH  10  24
TORSDOF 5
ENDMDL
