MODEL        5
REMARK  Name = 5280863
REMARK  5 active torsions:
REMARK  status: ('A' for Active; 'I' for Inactive)
REMARK    1  A    between atoms: O_2  and  C_11
REMARK    2  A    between atoms: O_3  and  C_13
REMARK    3  A    between atoms: O_5  and  C_15
REMARK    4  A    between atoms: O_6  and  C_21
REMARK    5  A    between atoms: C_9  and  C_12
REMARK                            x       y       z     vdW  Elec       q    Type
REMARK                         _______ _______ _______ _____ _____    ______ ____
ROOT
ATOM      1  O   UNL     1       1.521  15.511  21.190  0.00  0.00    +0.000 OA
ATOM      2  O   UNL     1       0.317  13.682  17.754  0.00  0.00    +0.000 OA
ATOM      3  C   UNL     1       2.063  14.117  19.278  0.00  0.00    +0.000 A 
ATOM      4  C   UNL     1       2.411  14.768  20.460  0.00  0.00    +0.000 A 
ATOM      5  C   UNL     1       0.214  15.608  20.740  0.00  0.00    +0.000 A 
ATOM      6  C   UNL     1       0.680  14.227  18.788  0.00  0.00    +0.000 A 
ATOM      7  C   UNL     1      -0.248  15.036  19.613  0.00  0.00    +0.000 A 
ATOM      8  C   UNL     1       3.014  13.373  18.575  0.00  0.00    +0.000 A 
ATOM      9  C   UNL     1       3.717  14.680  20.946  0.00  0.00    +0.000 A 
ATOM     10  C   UNL     1       4.669  13.939  20.246  0.00  0.00    +0.000 A 
ATOM     11  C   UNL     1       4.318  13.287  19.063  0.00  0.00    +0.000 A 
ENDROOT
BRANCH   5  12
ATOM     12  C   UNL     1      -0.636  16.434  21.615  0.00  0.00    +0.000 A 
ATOM     13  C   UNL     1      -0.115  17.580  22.215  0.00  0.00    +0.000 A 
ATOM     14  C   UNL     1      -1.963  16.070  21.843  0.00  0.00    +0.000 A 
ATOM     15  C   UNL     1      -0.920  18.362  23.043  0.00  0.00    +0.000 A 
ATOM     16  C   UNL     1      -2.769  16.852  22.672  0.00  0.00    +0.000 A 
ATOM     17  C   UNL     1      -2.246  17.998  23.272  0.00  0.00    +0.000 A 
BRANCH  17  18
ATOM     18  O   UNL     1      -3.032  18.762  24.080  0.00  0.00    +0.000 OA
ATOM     19  H   UNL     1      -2.842  18.537  25.006  0.00  0.00    +0.000 HD
ENDBRANCH  17  18
ENDBRANCH   5  12
BRANCH   7  20
ATOM     20  O   UNL     1      -1.548  15.180  19.174  0.00  0.00    +0.000 OA
ATOM     21  H   UNL     1      -1.678  14.672  18.358  0.00  0.00    +0.000 HD
ENDBRANCH   7  20
BRANCH   8  22
ATOM     22  O   UNL     1       2.724  12.719  17.416  0.00  0.00    +0.000 OA
ATOM     23  H   UNL     1       2.223  13.293  16.817  0.00  0.00    +0.000 HD
ENDBRANCH   8  22
BRANCH  10  24
ATOM     24  O   UNL     1       5.944  13.852  20.717  0.00  0.00    +0.000 OA
ATOM     25  H   UNL     1       6.445  14.629  20.417  0.00  0.00    +0.000 HD
ENDBRANCH  10  24
TORSDOF 5
ENDMDL
