MODEL        5
REMARK  Name = 5280863
REMARK  5 active torsions:
REMARK  status: ('A' for Active; 'I' for Inactive)
REMARK    1  A    between atoms: O_2  and  C_11
REMARK    2  A    between atoms: O_3  and  C_13
REMARK    3  A    between atoms: O_5  and  C_15
REMARK    4  A    between atoms: O_6  and  C_21
REMARK    5  A    between atoms: C_9  and  C_12
REMARK                            x       y       z     vdW  Elec       q    Type
REMARK                         _______ _______ _______ _____ _____    ______ ____
ROOT
ATOM      1  O   UNL     1      28.153   6.521  59.569  0.00  0.00    +0.000 OA
ATOM      2  O   UNL     1      27.954   3.511  62.309  0.00  0.00    +0.000 OA
ATOM      3  C   UNL     1      27.824   5.825  61.871  0.00  0.00    +0.000 A 
ATOM      4  C   UNL     1      27.905   6.807  60.886  0.00  0.00    +0.000 A 
ATOM      5  C   UNL     1      28.316   5.195  59.200  0.00  0.00    +0.000 A 
ATOM      6  C   UNL     1      28.009   4.417  61.488  0.00  0.00    +0.000 A 
ATOM      7  C   UNL     1      28.269   4.154  60.052  0.00  0.00    +0.000 A 
ATOM      8  C   UNL     1      27.570   6.177  63.200  0.00  0.00    +0.000 A 
ATOM      9  C   UNL     1      27.735   8.150  61.225  0.00  0.00    +0.000 A 
ATOM     10  C   UNL     1      27.481   8.505  62.549  0.00  0.00    +0.000 A 
ATOM     11  C   UNL     1      27.399   7.520  63.535  0.00  0.00    +0.000 A 
ENDROOT
BRANCH   5  12
ATOM     12  C   UNL     1      28.576   5.027  57.759  0.00  0.00    +0.000 A 
ATOM     13  C   UNL     1      27.761   5.666  56.824  0.00  0.00    +0.000 A 
ATOM     14  C   UNL     1      29.637   4.230  57.330  0.00  0.00    +0.000 A 
ATOM     15  C   UNL     1      28.008   5.508  55.460  0.00  0.00    +0.000 A 
ATOM     16  C   UNL     1      29.883   4.071  55.966  0.00  0.00    +0.000 A 
ATOM     17  C   UNL     1      29.068   4.710  55.031  0.00  0.00    +0.000 A 
BRANCH  17  18
ATOM     18  O   UNL     1      29.309   4.556  53.700  0.00  0.00    +0.000 OA
ATOM     19  H   UNL     1      28.745   5.174  53.205  0.00  0.00    +0.000 HD
ENDBRANCH  17  18
ENDBRANCH   5  12
BRANCH   7  20
ATOM     20  O   UNL     1      28.470   2.849  59.658  0.00  0.00    +0.000 OA
ATOM     21  H   UNL     1      28.402   2.258  60.425  0.00  0.00    +0.000 HD
ENDBRANCH   7  20
BRANCH   8  22
ATOM     22  O   UNL     1      27.480   5.255  64.199  0.00  0.00    +0.000 OA
ATOM     23  H   UNL     1      28.220   4.630  64.153  0.00  0.00    +0.000 HD
ENDBRANCH   8  22
BRANCH  10  24
ATOM     24  O   UNL     1      27.314   9.815  62.883  0.00  0.00    +0.000 OA
ATOM     25  H   UNL     1      28.078  10.106  63.409  0.00  0.00    +0.000 HD
ENDBRANCH  10  24
TORSDOF 5
ENDMDL
