MODEL        4
REMARK  Name = 5280343
REMARK  6 active torsions:
REMARK  status: ('A' for Active; 'I' for Inactive)
REMARK    1  A    between atoms: O_2  and  C_12
REMARK    2  A    between atoms: O_3  and  C_14
REMARK    3  A    between atoms: O_5  and  C_16
REMARK    4  A    between atoms: O_6  and  C_20
REMARK    5  A    between atoms: O_7  and  C_22
REMARK    6  A    between atoms: C_10  and  C_11
REMARK                            x       y       z     vdW  Elec       q    Type
REMARK                         _______ _______ _______ _____ _____    ______ ____
ROOT
ATOM      1  O   UNL     1       8.853   1.292  16.333  0.00  0.00    +0.000 OA
ATOM      2  O   UNL     1      10.242   5.016  15.433  0.00  0.00    +0.000 OA
ATOM      3  C   UNL     1       8.417   3.523  15.484  0.00  0.00    +0.000 A 
ATOM      4  C   UNL     1       8.005   2.233  15.812  0.00  0.00    +0.000 A 
ATOM      5  C   UNL     1      10.175   1.644  16.556  0.00  0.00    +0.000 A 
ATOM      6  C   UNL     1      10.701   2.851  16.277  0.00  0.00    +0.000 A 
ATOM      7  C   UNL     1       9.821   3.899  15.706  0.00  0.00    +0.000 A 
ATOM      8  C   UNL     1       7.506   4.441  14.954  0.00  0.00    +0.000 A 
ATOM      9  C   UNL     1       6.678   1.851  15.609  0.00  0.00    +0.000 A 
ATOM     10  C   UNL     1       5.766   2.765  15.079  0.00  0.00    +0.000 A 
ATOM     11  C   UNL     1       6.180   4.057  14.753  0.00  0.00    +0.000 A 
ENDROOT
BRANCH   5  12
ATOM     12  C   UNL     1      10.977   0.543  17.119  0.00  0.00    +0.000 A 
ATOM     13  C   UNL     1      10.466  -0.232  18.160  0.00  0.00    +0.000 A 
ATOM     14  C   UNL     1      12.248   0.275  16.609  0.00  0.00    +0.000 A 
ATOM     15  C   UNL     1      11.224  -1.275  18.691  0.00  0.00    +0.000 A 
ATOM     16  C   UNL     1      13.007  -0.768  17.140  0.00  0.00    +0.000 A 
ATOM     17  C   UNL     1      12.496  -1.543  18.181  0.00  0.00    +0.000 A 
BRANCH  15  18
ATOM     18  O   UNL     1      10.716  -2.024  19.708  0.00  0.00    +0.000 OA
ATOM     19  H   UNL     1      11.419  -2.570  20.097  0.00  0.00    +0.000 HD
ENDBRANCH  15  18
BRANCH  17  20
ATOM     20  O   UNL     1      13.246  -2.560  18.691  0.00  0.00    +0.000 OA
ATOM     21  H   UNL     1      12.860  -2.863  19.528  0.00  0.00    +0.000 HD
ENDBRANCH  17  20
ENDBRANCH   5  12
BRANCH   6  22
ATOM     22  O   UNL     1      12.028   3.159  16.480  0.00  0.00    +0.000 OA
ATOM     23  H   UNL     1      12.261   3.959  15.983  0.00  0.00    +0.000 HD
ENDBRANCH   6  22
BRANCH   8  24
ATOM     24  O   UNL     1       7.858   5.713  14.618  0.00  0.00    +0.000 OA
ATOM     25  H   UNL     1       8.771   5.896  14.886  0.00  0.00    +0.000 HD
ENDBRANCH   8  24
BRANCH  10  26
ATOM     26  O   UNL     1       4.472   2.395  14.881  0.00  0.00    +0.000 OA
ATOM     27  H   UNL     1       4.418   1.855  14.074  0.00  0.00    +0.000 HD
ENDBRANCH  10  26
TORSDOF 6
ENDMDL
