MODEL        4
REMARK  Name = 5280343
REMARK  6 active torsions:
REMARK  status: ('A' for Active; 'I' for Inactive)
REMARK    1  A    between atoms: O_2  and  C_12
REMARK    2  A    between atoms: O_3  and  C_14
REMARK    3  A    between atoms: O_5  and  C_16
REMARK    4  A    between atoms: O_6  and  C_20
REMARK    5  A    between atoms: O_7  and  C_22
REMARK    6  A    between atoms: C_10  and  C_11
REMARK                            x       y       z     vdW  Elec       q    Type
REMARK                         _______ _______ _______ _____ _____    ______ ____
ROOT
ATOM      1  O   UNL     1     -10.582 -20.963   8.402  0.00  0.00    +0.000 OA
ATOM      2  O   UNL     1     -11.515 -18.476  11.492  0.00  0.00    +0.000 OA
ATOM      3  C   UNL     1     -10.917 -18.704   9.223  0.00  0.00    +0.000 A 
ATOM      4  C   UNL     1     -10.604 -19.607   8.208  0.00  0.00    +0.000 A 
ATOM      5  C   UNL     1     -10.897 -21.458   9.658  0.00  0.00    +0.000 A 
ATOM      6  C   UNL     1     -11.207 -20.695  10.722  0.00  0.00    +0.000 A 
ATOM      7  C   UNL     1     -11.239 -19.222  10.561  0.00  0.00    +0.000 A 
ATOM      8  C   UNL     1     -10.922 -17.331   8.967  0.00  0.00    +0.000 A 
ATOM      9  C   UNL     1     -10.293 -19.141   6.931  0.00  0.00    +0.000 A 
ATOM     10  C   UNL     1     -10.298 -17.769   6.671  0.00  0.00    +0.000 A 
ATOM     11  C   UNL     1     -10.612 -16.867   7.689  0.00  0.00    +0.000 A 
ENDROOT
BRANCH   5  12
ATOM     12  C   UNL     1     -10.835 -22.928   9.729  0.00  0.00    +0.000 A 
ATOM     13  C   UNL     1     -10.674 -23.562  10.961  0.00  0.00    +0.000 A 
ATOM     14  C   UNL     1     -10.939 -23.688   8.562  0.00  0.00    +0.000 A 
ATOM     15  C   UNL     1     -10.618 -24.954  11.028  0.00  0.00    +0.000 A 
ATOM     16  C   UNL     1     -10.882 -25.080   8.629  0.00  0.00    +0.000 A 
ATOM     17  C   UNL     1     -10.721 -25.713   9.862  0.00  0.00    +0.000 A 
BRANCH  15  18
ATOM     18  O   UNL     1     -10.459 -25.562  12.236  0.00  0.00    +0.000 OA
ATOM     19  H   UNL     1     -10.752 -26.485  12.180  0.00  0.00    +0.000 HD
ENDBRANCH  15  18
BRANCH  17  20
ATOM     20  O   UNL     1     -10.668 -27.073   9.914  0.00  0.00    +0.000 OA
ATOM     21  H   UNL     1     -10.577 -27.362  10.836  0.00  0.00    +0.000 HD
ENDBRANCH  17  20
ENDBRANCH   5  12
BRANCH   6  22
ATOM     22  O   UNL     1     -11.483 -21.217  11.967  0.00  0.00    +0.000 OA
ATOM     23  H   UNL     1     -11.546 -20.501  12.618  0.00  0.00    +0.000 HD
ENDBRANCH   6  22
BRANCH   8  24
ATOM     24  O   UNL     1     -11.221 -16.406   9.923  0.00  0.00    +0.000 OA
ATOM     25  H   UNL     1     -10.869 -16.681  10.783  0.00  0.00    +0.000 HD
ENDBRANCH   8  24
BRANCH  10  26
ATOM     26  O   UNL     1      -9.995 -17.312   5.426  0.00  0.00    +0.000 OA
ATOM     27  H   UNL     1      -9.970 -18.065   4.811  0.00  0.00    +0.000 HD
ENDBRANCH  10  26
TORSDOF 6
ENDMDL
