MODEL        6
REMARK  Name = 5281426
REMARK  1 active torsions:
REMARK  status: ('A' for Active; 'I' for Inactive)
REMARK    1  A    between atoms: O_2  and  C_9
REMARK                            x       y       z     vdW  Elec       q    Type
REMARK                         _______ _______ _______ _____ _____    ______ ____
ROOT
ATOM      1  O   UNL     1      15.852 123.210  20.296  0.00  0.00    +0.000 OA
ATOM      2  O   UNL     1      17.894 124.235  20.134  0.00  0.00    +0.000 OA
ATOM      3  C   UNL     1      14.932 122.091  18.339  0.00  0.00    +0.000 A 
ATOM      4  C   UNL     1      14.825 122.469  19.676  0.00  0.00    +0.000 A 
ATOM      5  C   UNL     1      13.894 121.356  17.761  0.00  0.00    +0.000 A 
ATOM      6  C   UNL     1      13.713 122.134  20.446  0.00  0.00    +0.000 A 
ATOM      7  C   UNL     1      16.120 122.474  17.596  0.00  0.00    +0.000 A 
ATOM      8  C   UNL     1      12.683 121.402  19.861  0.00  0.00    +0.000 A 
ATOM      9  C   UNL     1      12.772 121.013  18.522  0.00  0.00    +0.000 A 
ATOM     10  C   UNL     1      17.087 123.176  18.190  0.00  0.00    +0.000 A 
ATOM     11  C   UNL     1      16.998 123.588  19.603  0.00  0.00    +0.000 A 
ENDROOT
BRANCH   8  12
ATOM     12  O   UNL     1      11.586 121.064  20.593  0.00  0.00    +0.000 OA
ATOM     13  H   UNL     1      10.877 121.705  20.412  0.00  0.00    +0.000 HD
ENDBRANCH   8  12
TORSDOF 1
ENDMDL
