MODEL        6
REMARK  Name = 5281426
REMARK  1 active torsions:
REMARK  status: ('A' for Active; 'I' for Inactive)
REMARK    1  A    between atoms: O_2  and  C_9
REMARK                            x       y       z     vdW  Elec       q    Type
REMARK                         _______ _______ _______ _____ _____    ______ ____
ROOT
ATOM      1  O   UNL     1      28.889  81.574  27.226  0.00  0.00    +0.000 OA
ATOM      2  O   UNL     1      29.870  80.141  28.720  0.00  0.00    +0.000 OA
ATOM      3  C   UNL     1      29.692  83.867  27.085  0.00  0.00    +0.000 A 
ATOM      4  C   UNL     1      28.825  82.863  26.660  0.00  0.00    +0.000 A 
ATOM      5  C   UNL     1      29.599  85.132  26.498  0.00  0.00    +0.000 A 
ATOM      6  C   UNL     1      27.871  83.089  25.669  0.00  0.00    +0.000 A 
ATOM      7  C   UNL     1      30.663  83.563  28.122  0.00  0.00    +0.000 A 
ATOM      8  C   UNL     1      27.786  84.352  25.090  0.00  0.00    +0.000 A 
ATOM      9  C   UNL     1      28.647  85.372  25.504  0.00  0.00    +0.000 A 
ATOM     10  C   UNL     1      30.716  82.338  28.654  0.00  0.00    +0.000 A 
ATOM     11  C   UNL     1      29.810  81.259  28.220  0.00  0.00    +0.000 A 
ENDROOT
BRANCH   8  12
ATOM     12  O   UNL     1      26.861  84.596  24.121  0.00  0.00    +0.000 OA
ATOM     13  H   UNL     1      26.738  83.789  23.593  0.00  0.00    +0.000 HD
ENDBRANCH   8  12
TORSDOF 1
ENDMDL
