MODEL        6
REMARK  Name = 5281426
REMARK  1 active torsions:
REMARK  status: ('A' for Active; 'I' for Inactive)
REMARK    1  A    between atoms: O_2  and  C_9
REMARK                            x       y       z     vdW  Elec       q    Type
REMARK                         _______ _______ _______ _____ _____    ______ ____
ROOT
ATOM      1  O   UNL     1     -22.204-109.972 198.785  0.00  0.00    +0.000 OA
ATOM      2  O   UNL     1     -23.300-108.391 200.029  0.00  0.00    +0.000 OA
ATOM      3  C   UNL     1     -23.435-111.194 197.077  0.00  0.00    +0.000 A 
ATOM      4  C   UNL     1     -22.249-110.944 197.764  0.00  0.00    +0.000 A 
ATOM      5  C   UNL     1     -23.439-112.164 196.072  0.00  0.00    +0.000 A 
ATOM      6  C   UNL     1     -21.073-111.634 197.475  0.00  0.00    +0.000 A 
ATOM      7  C   UNL     1     -24.623-110.438 197.430  0.00  0.00    +0.000 A 
ATOM      8  C   UNL     1     -21.088-112.599 196.471  0.00  0.00    +0.000 A 
ATOM      9  C   UNL     1     -22.267-112.864 195.771  0.00  0.00    +0.000 A 
ATOM     10  C   UNL     1     -24.572-109.520 198.399  0.00  0.00    +0.000 A 
ATOM     11  C   UNL     1     -23.330-109.236 199.140  0.00  0.00    +0.000 A 
ENDROOT
BRANCH   8  12
ATOM     12  O   UNL     1     -19.951-113.286 196.172  0.00  0.00    +0.000 OA
ATOM     13  H   UNL     1     -19.926-114.100 196.703  0.00  0.00    +0.000 HD
ENDBRANCH   8  12
TORSDOF 1
ENDMDL
