MODEL        6
REMARK  Name = 5281426
REMARK  1 active torsions:
REMARK  status: ('A' for Active; 'I' for Inactive)
REMARK    1  A    between atoms: O_2  and  C_9
REMARK                            x       y       z     vdW  Elec       q    Type
REMARK                         _______ _______ _______ _____ _____    ______ ____
ROOT
ATOM      1  O   UNL     1      20.452  -0.240   5.520  0.00  0.00    +0.000 OA
ATOM      2  O   UNL     1      21.139   0.858   3.630  0.00  0.00    +0.000 OA
ATOM      3  C   UNL     1      21.886  -1.961   6.474  0.00  0.00    +0.000 A 
ATOM      4  C   UNL     1      20.709  -1.216   6.504  0.00  0.00    +0.000 A 
ATOM      5  C   UNL     1      22.103  -2.918   7.468  0.00  0.00    +0.000 A 
ATOM      6  C   UNL     1      19.748  -1.402   7.496  0.00  0.00    +0.000 A 
ATOM      7  C   UNL     1      22.844  -1.715   5.410  0.00  0.00    +0.000 A 
ATOM      8  C   UNL     1      19.974  -2.359   8.483  0.00  0.00    +0.000 A 
ATOM      9  C   UNL     1      21.148  -3.116   8.469  0.00  0.00    +0.000 A 
ATOM     10  C   UNL     1      22.593  -0.789   4.481  0.00  0.00    +0.000 A 
ATOM     11  C   UNL     1      21.356   0.012   4.492  0.00  0.00    +0.000 A 
ENDROOT
BRANCH   8  12
ATOM     12  O   UNL     1      19.049  -2.559   9.462  0.00  0.00    +0.000 OA
ATOM     13  H   UNL     1      18.479  -1.774   9.521  0.00  0.00    +0.000 HD
ENDBRANCH   8  12
TORSDOF 1
ENDMDL
