MODEL        6
REMARK  Name = 5281426
REMARK  1 active torsions:
REMARK  status: ('A' for Active; 'I' for Inactive)
REMARK    1  A    between atoms: O_2  and  C_9
REMARK                            x       y       z     vdW  Elec       q    Type
REMARK                         _______ _______ _______ _____ _____    ______ ____
ROOT
ATOM      1  O   UNL     1     -22.650  -1.043  -9.625  0.00  0.00    +0.000 OA
ATOM      2  O   UNL     1     -23.218   1.092  -9.021  0.00  0.00    +0.000 OA
ATOM      3  C   UNL     1     -21.133  -1.378 -11.500  0.00  0.00    +0.000 A 
ATOM      4  C   UNL     1     -21.930  -1.900 -10.483  0.00  0.00    +0.000 A 
ATOM      5  C   UNL     1     -20.435  -2.260 -12.328  0.00  0.00    +0.000 A 
ATOM      6  C   UNL     1     -22.047  -3.273 -10.273  0.00  0.00    +0.000 A 
ATOM      7  C   UNL     1     -21.058   0.063 -11.661  0.00  0.00    +0.000 A 
ATOM      8  C   UNL     1     -21.347  -4.143 -11.105  0.00  0.00    +0.000 A 
ATOM      9  C   UNL     1     -20.543  -3.639 -12.130  0.00  0.00    +0.000 A 
ATOM     10  C   UNL     1     -21.744   0.868 -10.845  0.00  0.00    +0.000 A 
ATOM     11  C   UNL     1     -22.593   0.340  -9.761  0.00  0.00    +0.000 A 
ENDROOT
BRANCH   8  12
ATOM     12  O   UNL     1     -21.446  -5.489 -10.920  0.00  0.00    +0.000 OA
ATOM     13  H   UNL     1     -21.757  -5.660 -10.014  0.00  0.00    +0.000 HD
ENDBRANCH   8  12
TORSDOF 1
ENDMDL
