MODEL        6
REMARK  Name = 5281426
REMARK  1 active torsions:
REMARK  status: ('A' for Active; 'I' for Inactive)
REMARK    1  A    between atoms: O_2  and  C_9
REMARK                            x       y       z     vdW  Elec       q    Type
REMARK                         _______ _______ _______ _____ _____    ______ ____
ROOT
ATOM      1  O   UNL     1     -12.349  -5.929 -22.447  0.00  0.00    +0.000 OA
ATOM      2  O   UNL     1     -14.340  -5.417 -21.434  0.00  0.00    +0.000 OA
ATOM      3  C   UNL     1     -10.565  -4.272 -22.453  0.00  0.00    +0.000 A 
ATOM      4  C   UNL     1     -11.043  -5.533 -22.801  0.00  0.00    +0.000 A 
ATOM      5  C   UNL     1      -9.266  -3.918 -22.822  0.00  0.00    +0.000 A 
ATOM      6  C   UNL     1     -10.259  -6.446 -23.505  0.00  0.00    +0.000 A 
ATOM      7  C   UNL     1     -11.437  -3.371 -21.719  0.00  0.00    +0.000 A 
ATOM      8  C   UNL     1      -8.965  -6.084 -23.868  0.00  0.00    +0.000 A 
ATOM      9  C   UNL     1      -8.468  -4.823 -23.528  0.00  0.00    +0.000 A 
ATOM     10  C   UNL     1     -12.673  -3.753 -21.388  0.00  0.00    +0.000 A 
ATOM     11  C   UNL     1     -13.201  -5.082 -21.744  0.00  0.00    +0.000 A 
ENDROOT
BRANCH   8  12
ATOM     12  O   UNL     1      -8.181  -6.958 -24.557  0.00  0.00    +0.000 OA
ATOM     13  H   UNL     1      -7.516  -7.329 -23.952  0.00  0.00    +0.000 HD
ENDBRANCH   8  12
TORSDOF 1
ENDMDL
