MODEL        6
REMARK  Name = 5281426
REMARK  1 active torsions:
REMARK  status: ('A' for Active; 'I' for Inactive)
REMARK    1  A    between atoms: O_2  and  C_9
REMARK                            x       y       z     vdW  Elec       q    Type
REMARK                         _______ _______ _______ _____ _____    ______ ____
ROOT
ATOM      1  O   UNL     1      25.836  -0.983   5.115  0.00  0.00    +0.000 OA
ATOM      2  O   UNL     1      27.194   0.777   5.673  0.00  0.00    +0.000 OA
ATOM      3  C   UNL     1      23.715  -1.255   6.278  0.00  0.00    +0.000 A 
ATOM      4  C   UNL     1      24.633  -1.688   5.325  0.00  0.00    +0.000 A 
ATOM      5  C   UNL     1      22.534  -1.980   6.455  0.00  0.00    +0.000 A 
ATOM      6  C   UNL     1      24.404  -2.821   4.547  0.00  0.00    +0.000 A 
ATOM      7  C   UNL     1      24.019  -0.065   7.054  0.00  0.00    +0.000 A 
ATOM      8  C   UNL     1      23.224  -3.537   4.731  0.00  0.00    +0.000 A 
ATOM      9  C   UNL     1      22.291  -3.118   5.682  0.00  0.00    +0.000 A 
ATOM     10  C   UNL     1      25.161   0.597   6.850  0.00  0.00    +0.000 A 
ATOM     11  C   UNL     1      26.148   0.159   5.846  0.00  0.00    +0.000 A 
ENDROOT
BRANCH   8  12
ATOM     12  O   UNL     1      22.978  -4.648   3.983  0.00  0.00    +0.000 OA
ATOM     13  H   UNL     1      22.895  -5.415   4.576  0.00  0.00    +0.000 HD
ENDBRANCH   8  12
TORSDOF 1
ENDMDL
