MODEL        6
REMARK  Name = 5281426
REMARK  1 active torsions:
REMARK  status: ('A' for Active; 'I' for Inactive)
REMARK    1  A    between atoms: O_2  and  C_9
REMARK                            x       y       z     vdW  Elec       q    Type
REMARK                         _______ _______ _______ _____ _____    ______ ____
ROOT
ATOM      1  O   UNL     1      22.227   5.215   1.447  0.00  0.00    +0.000 OA
ATOM      2  O   UNL     1      20.278   4.677   2.525  0.00  0.00    +0.000 OA
ATOM      3  C   UNL     1      22.254   7.122  -0.066  0.00  0.00    +0.000 A 
ATOM      4  C   UNL     1      22.912   6.060   0.550  0.00  0.00    +0.000 A 
ATOM      5  C   UNL     1      22.968   7.937  -0.948  0.00  0.00    +0.000 A 
ATOM      6  C   UNL     1      24.258   5.791   0.307  0.00  0.00    +0.000 A 
ATOM      7  C   UNL     1      20.850   7.344   0.233  0.00  0.00    +0.000 A 
ATOM      8  C   UNL     1      24.961   6.609  -0.574  0.00  0.00    +0.000 A 
ATOM      9  C   UNL     1      24.318   7.679  -1.200  0.00  0.00    +0.000 A 
ATOM     10  C   UNL     1      20.208   6.539   1.083  0.00  0.00    +0.000 A 
ATOM     11  C   UNL     1      20.883   5.409   1.747  0.00  0.00    +0.000 A 
ENDROOT
BRANCH   8  12
ATOM     12  O   UNL     1      26.276   6.365  -0.826  0.00  0.00    +0.000 OA
ATOM     13  H   UNL     1      26.762   7.207  -0.809  0.00  0.00    +0.000 HD
ENDBRANCH   8  12
TORSDOF 1
ENDMDL
