MODEL        6
REMARK  Name = 5281426
REMARK  1 active torsions:
REMARK  status: ('A' for Active; 'I' for Inactive)
REMARK    1  A    between atoms: O_2  and  C_9
REMARK                            x       y       z     vdW  Elec       q    Type
REMARK                         _______ _______ _______ _____ _____    ______ ____
ROOT
ATOM      1  O   UNL     1      28.556  38.262  17.416  0.00  0.00    +0.000 OA
ATOM      2  O   UNL     1      26.579  38.827  18.427  0.00  0.00    +0.000 OA
ATOM      3  C   UNL     1      28.708  38.340  14.988  0.00  0.00    +0.000 A 
ATOM      4  C   UNL     1      29.293  38.091  16.227  0.00  0.00    +0.000 A 
ATOM      5  C   UNL     1      29.472  38.161  13.833  0.00  0.00    +0.000 A 
ATOM      6  C   UNL     1      30.617  37.670  16.341  0.00  0.00    +0.000 A 
ATOM      7  C   UNL     1      27.323  38.777  14.943  0.00  0.00    +0.000 A 
ATOM      8  C   UNL     1      31.371  37.494  15.184  0.00  0.00    +0.000 A 
ATOM      9  C   UNL     1      30.800  37.739  13.932  0.00  0.00    +0.000 A 
ATOM     10  C   UNL     1      26.631  38.935  16.074  0.00  0.00    +0.000 A 
ATOM     11  C   UNL     1      27.229  38.679  17.397  0.00  0.00    +0.000 A 
ENDROOT
BRANCH   8  12
ATOM     12  O   UNL     1      32.665  37.082  15.270  0.00  0.00    +0.000 OA
ATOM     13  H   UNL     1      33.014  37.319  16.147  0.00  0.00    +0.000 HD
ENDBRANCH   8  12
TORSDOF 1
ENDMDL
