MODEL        6
REMARK  Name = 5281426
REMARK  1 active torsions:
REMARK  status: ('A' for Active; 'I' for Inactive)
REMARK    1  A    between atoms: O_2  and  C_9
REMARK                            x       y       z     vdW  Elec       q    Type
REMARK                         _______ _______ _______ _____ _____    ______ ____
ROOT
ATOM      1  O   UNL     1      22.605  37.326  14.322  0.00  0.00    +0.000 OA
ATOM      2  O   UNL     1      24.852  37.691  14.066  0.00  0.00    +0.000 OA
ATOM      3  C   UNL     1      21.299  36.597  12.401  0.00  0.00    +0.000 A 
ATOM      4  C   UNL     1      21.374  36.949  13.747  0.00  0.00    +0.000 A 
ATOM      5  C   UNL     1      20.061  36.228  11.869  0.00  0.00    +0.000 A 
ATOM      6  C   UNL     1      20.250  36.942  14.571  0.00  0.00    +0.000 A 
ATOM      7  C   UNL     1      22.511  36.626  11.601  0.00  0.00    +0.000 A 
ATOM      8  C   UNL     1      19.021  36.573  14.031  0.00  0.00    +0.000 A 
ATOM      9  C   UNL     1      18.926  36.217  12.683  0.00  0.00    +0.000 A 
ATOM     10  C   UNL     1      23.673  36.986  12.153  0.00  0.00    +0.000 A 
ATOM     11  C   UNL     1      23.778  37.362  13.574  0.00  0.00    +0.000 A 
ENDROOT
BRANCH   8  12
ATOM     12  O   UNL     1      17.909  36.560  14.816  0.00  0.00    +0.000 OA
ATOM     13  H   UNL     1      17.345  37.315  14.576  0.00  0.00    +0.000 HD
ENDBRANCH   8  12
TORSDOF 1
ENDMDL
