MODEL        6
REMARK  Name = 5281426
REMARK  1 active torsions:
REMARK  status: ('A' for Active; 'I' for Inactive)
REMARK    1  A    between atoms: O_2  and  C_9
REMARK                            x       y       z     vdW  Elec       q    Type
REMARK                         _______ _______ _______ _____ _____    ______ ____
ROOT
ATOM      1  O   UNL     1      13.254  -0.836  17.869  0.00  0.00    +0.000 OA
ATOM      2  O   UNL     1      14.136  -2.864  18.468  0.00  0.00    +0.000 OA
ATOM      3  C   UNL     1      11.157  -0.777  16.632  0.00  0.00    +0.000 A 
ATOM      4  C   UNL     1      12.224  -0.112  17.233  0.00  0.00    +0.000 A 
ATOM      5  C   UNL     1      10.157  -0.024  16.013  0.00  0.00    +0.000 A 
ATOM      6  C   UNL     1      12.317   1.279  17.230  0.00  0.00    +0.000 A 
ATOM      7  C   UNL     1      11.125  -2.229  16.672  0.00  0.00    +0.000 A 
ATOM      8  C   UNL     1      11.315   2.020  16.610  0.00  0.00    +0.000 A 
ATOM      9  C   UNL     1      10.237   1.371  16.003  0.00  0.00    +0.000 A 
ATOM     10  C   UNL     1      12.104  -2.907  17.276  0.00  0.00    +0.000 A 
ATOM     11  C   UNL     1      13.243  -2.226  17.919  0.00  0.00    +0.000 A 
ENDROOT
BRANCH   8  12
ATOM     12  O   UNL     1      11.384   3.380  16.595  0.00  0.00    +0.000 OA
ATOM     13  H   UNL     1      11.366   3.707  17.510  0.00  0.00    +0.000 HD
ENDBRANCH   8  12
TORSDOF 1
ENDMDL
