MODEL        6
REMARK  Name = 5281426
REMARK  1 active torsions:
REMARK  status: ('A' for Active; 'I' for Inactive)
REMARK    1  A    between atoms: O_2  and  C_9
REMARK                            x       y       z     vdW  Elec       q    Type
REMARK                         _______ _______ _______ _____ _____    ______ ____
ROOT
ATOM      1  O   UNL     1       1.091  15.729  20.370  0.00  0.00    +0.000 OA
ATOM      2  O   UNL     1      -1.079  16.441  20.192  0.00  0.00    +0.000 OA
ATOM      3  C   UNL     1       1.830  13.839  19.024  0.00  0.00    +0.000 A 
ATOM      4  C   UNL     1       2.099  14.828  19.967  0.00  0.00    +0.000 A 
ATOM      5  C   UNL     1       2.855  12.967  18.651  0.00  0.00    +0.000 A 
ATOM      6  C   UNL     1       3.359  14.967  20.545  0.00  0.00    +0.000 A 
ATOM      7  C   UNL     1       0.493  13.751  18.463  0.00  0.00    +0.000 A 
ATOM      8  C   UNL     1       4.375  14.093  20.166  0.00  0.00    +0.000 A 
ATOM      9  C   UNL     1       4.124  13.095  19.222  0.00  0.00    +0.000 A 
ATOM     10  C   UNL     1      -0.456  14.608  18.850  0.00  0.00    +0.000 A 
ATOM     11  C   UNL     1      -0.196  15.663  19.845  0.00  0.00    +0.000 A 
ENDROOT
BRANCH   8  12
ATOM     12  O   UNL     1       5.614  14.209  20.718  0.00  0.00    +0.000 OA
ATOM     13  H   UNL     1       5.971  15.089  20.507  0.00  0.00    +0.000 HD
ENDBRANCH   8  12
TORSDOF 1
ENDMDL
