MODEL        6
REMARK  Name = 5281426
REMARK  1 active torsions:
REMARK  status: ('A' for Active; 'I' for Inactive)
REMARK    1  A    between atoms: O_2  and  C_9
REMARK                            x       y       z     vdW  Elec       q    Type
REMARK                         _______ _______ _______ _____ _____    ______ ____
ROOT
ATOM      1  O   UNL     1     -14.488  10.367 -38.461  0.00  0.00    +0.000 OA
ATOM      2  O   UNL     1     -14.837   8.105 -38.373  0.00  0.00    +0.000 OA
ATOM      3  C   UNL     1     -13.358  11.315 -40.398  0.00  0.00    +0.000 A 
ATOM      4  C   UNL     1     -13.975  11.479 -39.160  0.00  0.00    +0.000 A 
ATOM      5  C   UNL     1     -12.864  12.441 -41.060  0.00  0.00    +0.000 A 
ATOM      6  C   UNL     1     -14.111  12.734 -38.569  0.00  0.00    +0.000 A 
ATOM      7  C   UNL     1     -13.250   9.978 -40.956  0.00  0.00    +0.000 A 
ATOM      8  C   UNL     1     -13.615  13.851 -39.237  0.00  0.00    +0.000 A 
ATOM      9  C   UNL     1     -12.993  13.706 -40.479  0.00  0.00    +0.000 A 
ATOM     10  C   UNL     1     -13.738   8.930 -40.287  0.00  0.00    +0.000 A 
ATOM     11  C   UNL     1     -14.396   9.078 -38.976  0.00  0.00    +0.000 A 
ENDROOT
BRANCH   8  12
ATOM     12  O   UNL     1     -13.736  15.087 -38.678  0.00  0.00    +0.000 OA
ATOM     13  H   UNL     1     -13.237  15.105 -37.844  0.00  0.00    +0.000 HD
ENDBRANCH   8  12
TORSDOF 1
ENDMDL
