MODEL        6
REMARK  Name = 5281426
REMARK  1 active torsions:
REMARK  status: ('A' for Active; 'I' for Inactive)
REMARK    1  A    between atoms: O_2  and  C_9
REMARK                            x       y       z     vdW  Elec       q    Type
REMARK                         _______ _______ _______ _____ _____    ______ ____
ROOT
ATOM      1  O   UNL     1      60.870  31.962  75.415  0.00  0.00    +0.000 OA
ATOM      2  O   UNL     1      61.406  32.852  73.373  0.00  0.00    +0.000 OA
ATOM      3  C   UNL     1      58.710  32.491  76.406  0.00  0.00    +0.000 A 
ATOM      4  C   UNL     1      59.939  31.837  76.466  0.00  0.00    +0.000 A 
ATOM      5  C   UNL     1      57.814  32.342  77.466  0.00  0.00    +0.000 A 
ATOM      6  C   UNL     1      60.293  31.041  77.554  0.00  0.00    +0.000 A 
ATOM      7  C   UNL     1      58.407  33.305  75.241  0.00  0.00    +0.000 A 
ATOM      8  C   UNL     1      59.392  30.898  78.606  0.00  0.00    +0.000 A 
ATOM      9  C   UNL     1      58.156  31.547  78.564  0.00  0.00    +0.000 A 
ATOM     10  C   UNL     1      59.295  33.419  74.250  0.00  0.00    +0.000 A 
ATOM     11  C   UNL     1      60.601  32.736  74.291  0.00  0.00    +0.000 A 
ENDROOT
BRANCH   8  12
ATOM     12  O   UNL     1      59.717  30.126  79.680  0.00  0.00    +0.000 OA
ATOM     13  H   UNL     1      59.293  30.496  80.473  0.00  0.00    +0.000 HD
ENDBRANCH   8  12
TORSDOF 1
ENDMDL
