MODEL        6
REMARK  Name = 5281426
REMARK  1 active torsions:
REMARK  status: ('A' for Active; 'I' for Inactive)
REMARK    1  A    between atoms: O_2  and  C_9
REMARK                            x       y       z     vdW  Elec       q    Type
REMARK                         _______ _______ _______ _____ _____    ______ ____
ROOT
ATOM      1  O   UNL     1     -38.220  28.973   8.476  0.00  0.00    +0.000 OA
ATOM      2  O   UNL     1     -37.668  27.105   9.682  0.00  0.00    +0.000 OA
ATOM      3  C   UNL     1     -38.993  28.713   6.182  0.00  0.00    +0.000 A 
ATOM      4  C   UNL     1     -38.678  29.531   7.264  0.00  0.00    +0.000 A 
ATOM      5  C   UNL     1     -39.444  29.304   4.999  0.00  0.00    +0.000 A 
ATOM      6  C   UNL     1     -38.800  30.918   7.196  0.00  0.00    +0.000 A 
ATOM      7  C   UNL     1     -38.842  27.275   6.323  0.00  0.00    +0.000 A 
ATOM      8  C   UNL     1     -39.251  31.497   6.013  0.00  0.00    +0.000 A 
ATOM      9  C   UNL     1     -39.572  30.693   4.917  0.00  0.00    +0.000 A 
ATOM     10  C   UNL     1     -38.407  26.754   7.474  0.00  0.00    +0.000 A 
ATOM     11  C   UNL     1     -38.068  27.599   8.633  0.00  0.00    +0.000 A 
ENDROOT
BRANCH   8  12
ATOM     12  O   UNL     1     -39.378  32.850   5.923  0.00  0.00    +0.000 OA
ATOM     13  H   UNL     1     -39.484  33.217   6.817  0.00  0.00    +0.000 HD
ENDBRANCH   8  12
TORSDOF 1
ENDMDL
