MODEL        6
REMARK  Name = 5281426
REMARK  1 active torsions:
REMARK  status: ('A' for Active; 'I' for Inactive)
REMARK    1  A    between atoms: O_2  and  C_9
REMARK                            x       y       z     vdW  Elec       q    Type
REMARK                         _______ _______ _______ _____ _____    ______ ____
ROOT
ATOM      1  O   UNL     1      33.225  -6.452   4.367  0.00  0.00    +0.000 OA
ATOM      2  O   UNL     1      34.751  -5.393   3.026  0.00  0.00    +0.000 OA
ATOM      3  C   UNL     1      33.204  -8.886   4.440  0.00  0.00    +0.000 A 
ATOM      4  C   UNL     1      32.688  -7.660   4.856  0.00  0.00    +0.000 A 
ATOM      5  C   UNL     1      32.645 -10.060   4.949  0.00  0.00    +0.000 A 
ATOM      6  C   UNL     1      31.632  -7.579   5.763  0.00  0.00    +0.000 A 
ATOM      7  C   UNL     1      34.305  -8.896   3.493  0.00  0.00    +0.000 A 
ATOM      8  C   UNL     1      31.082  -8.755   6.264  0.00  0.00    +0.000 A 
ATOM      9  C   UNL     1      31.586  -9.994   5.859  0.00  0.00    +0.000 A 
ATOM     10  C   UNL     1      34.808  -7.747   3.033  0.00  0.00    +0.000 A 
ATOM     11  C   UNL     1      34.279  -6.439   3.459  0.00  0.00    +0.000 A 
ENDROOT
BRANCH   8  12
ATOM     12  O   UNL     1      30.049  -8.701   7.150  0.00  0.00    +0.000 OA
ATOM     13  H   UNL     1      30.409  -8.716   8.054  0.00  0.00    +0.000 HD
ENDBRANCH   8  12
TORSDOF 1
ENDMDL
