MODEL        6
REMARK  Name = 5281426
REMARK  1 active torsions:
REMARK  status: ('A' for Active; 'I' for Inactive)
REMARK    1  A    between atoms: O_2  and  C_9
REMARK                            x       y       z     vdW  Elec       q    Type
REMARK                         _______ _______ _______ _____ _____    ______ ____
ROOT
ATOM      1  O   UNL     1     -29.104  -5.058 -12.332  0.00  0.00    +0.000 OA
ATOM      2  O   UNL     1     -28.375  -7.005 -13.296  0.00  0.00    +0.000 OA
ATOM      3  C   UNL     1     -31.226  -5.053 -11.138  0.00  0.00    +0.000 A 
ATOM      4  C   UNL     1     -30.091  -4.381 -11.587  0.00  0.00    +0.000 A 
ATOM      5  C   UNL     1     -32.180  -4.347 -10.401  0.00  0.00    +0.000 A 
ATOM      6  C   UNL     1     -29.886  -3.029 -11.320  0.00  0.00    +0.000 A 
ATOM      7  C   UNL     1     -31.375  -6.463 -11.453  0.00  0.00    +0.000 A 
ATOM      8  C   UNL     1     -30.843  -2.334 -10.585  0.00  0.00    +0.000 A 
ATOM      9  C   UNL     1     -31.987  -2.991 -10.126  0.00  0.00    +0.000 A 
ATOM     10  C   UNL     1     -30.436  -7.097 -12.160  0.00  0.00    +0.000 A 
ATOM     11  C   UNL     1     -29.227  -6.408 -12.645  0.00  0.00    +0.000 A 
ENDROOT
BRANCH   8  12
ATOM     12  O   UNL     1     -30.664  -1.012 -10.313  0.00  0.00    +0.000 OA
ATOM     13  H   UNL     1     -31.014  -0.487 -11.053  0.00  0.00    +0.000 HD
ENDBRANCH   8  12
TORSDOF 1
ENDMDL
