MODEL        6
REMARK  Name = 5281426
REMARK  1 active torsions:
REMARK  status: ('A' for Active; 'I' for Inactive)
REMARK    1  A    between atoms: O_2  and  C_9
REMARK                            x       y       z     vdW  Elec       q    Type
REMARK                         _______ _______ _______ _____ _____    ______ ____
ROOT
ATOM      1  O   UNL     1      34.783 -10.963 -11.965  0.00  0.00    +0.000 OA
ATOM      2  O   UNL     1      34.737  -9.017 -13.173  0.00  0.00    +0.000 OA
ATOM      3  C   UNL     1      36.927 -11.844 -11.223  0.00  0.00    +0.000 A 
ATOM      4  C   UNL     1      35.539 -11.943 -11.290  0.00  0.00    +0.000 A 
ATOM      5  C   UNL     1      37.642 -12.835 -10.545  0.00  0.00    +0.000 A 
ATOM      6  C   UNL     1      34.850 -13.001 -10.701  0.00  0.00    +0.000 A 
ATOM      7  C   UNL     1      37.581 -10.714 -11.860  0.00  0.00    +0.000 A 
ATOM      8  C   UNL     1      35.571 -13.983 -10.027  0.00  0.00    +0.000 A 
ATOM      9  C   UNL     1      36.963 -13.901  -9.949  0.00  0.00    +0.000 A 
ATOM     10  C   UNL     1      36.857  -9.790 -12.498  0.00  0.00    +0.000 A 
ATOM     11  C   UNL     1      35.387  -9.872 -12.582  0.00  0.00    +0.000 A 
ENDROOT
BRANCH   8  12
ATOM     12  O   UNL     1      34.919 -15.027  -9.444  0.00  0.00    +0.000 OA
ATOM     13  H   UNL     1      35.131 -15.040  -8.495  0.00  0.00    +0.000 HD
ENDBRANCH   8  12
TORSDOF 1
ENDMDL
