MODEL        6
REMARK  Name = 5281426
REMARK  1 active torsions:
REMARK  status: ('A' for Active; 'I' for Inactive)
REMARK    1  A    between atoms: O_2  and  C_9
REMARK                            x       y       z     vdW  Elec       q    Type
REMARK                         _______ _______ _______ _____ _____    ______ ____
ROOT
ATOM      1  O   UNL     1       8.579   9.503  95.678  0.00  0.00    +0.000 OA
ATOM      2  O   UNL     1       6.318   9.741  95.962  0.00  0.00    +0.000 OA
ATOM      3  C   UNL     1       9.403   7.862  94.080  0.00  0.00    +0.000 A 
ATOM      4  C   UNL     1       9.648   8.853  95.028  0.00  0.00    +0.000 A 
ATOM      5  C   UNL     1      10.489   7.242  93.457  0.00  0.00    +0.000 A 
ATOM      6  C   UNL     1      10.943   9.238  95.370  0.00  0.00    +0.000 A 
ATOM      7  C   UNL     1       8.028   7.511  93.772  0.00  0.00    +0.000 A 
ATOM      8  C   UNL     1      12.019   8.614  94.743  0.00  0.00    +0.000 A 
ATOM      9  C   UNL     1      11.793   7.618  93.789  0.00  0.00    +0.000 A 
ATOM     10  C   UNL     1       7.021   8.131  94.393  0.00  0.00    +0.000 A 
ATOM     11  C   UNL     1       7.254   9.182  95.400  0.00  0.00    +0.000 A 
ENDROOT
BRANCH   8  12
ATOM     12  O   UNL     1      13.293   8.973  95.061  0.00  0.00    +0.000 OA
ATOM     13  H   UNL     1      13.762   8.195  95.408  0.00  0.00    +0.000 HD
ENDBRANCH   8  12
TORSDOF 1
ENDMDL
