MODEL        6
REMARK  Name = 5281426
REMARK  1 active torsions:
REMARK  status: ('A' for Active; 'I' for Inactive)
REMARK    1  A    between atoms: O_2  and  C_9
REMARK                            x       y       z     vdW  Elec       q    Type
REMARK                         _______ _______ _______ _____ _____    ______ ____
ROOT
ATOM      1  O   UNL     1      12.518  14.749  18.009  0.00  0.00    +0.000 OA
ATOM      2  O   UNL     1      11.418  14.770  16.000  0.00  0.00    +0.000 OA
ATOM      3  C   UNL     1      13.950  16.630  18.592  0.00  0.00    +0.000 A 
ATOM      4  C   UNL     1      13.396  15.392  18.907  0.00  0.00    +0.000 A 
ATOM      5  C   UNL     1      14.814  17.234  19.508  0.00  0.00    +0.000 A 
ATOM      6  C   UNL     1      13.681  14.744  20.108  0.00  0.00    +0.000 A 
ATOM      7  C   UNL     1      13.609  17.248  17.323  0.00  0.00    +0.000 A 
ATOM      8  C   UNL     1      14.544  15.354  21.015  0.00  0.00    +0.000 A 
ATOM      9  C   UNL     1      15.109  16.597  20.716  0.00  0.00    +0.000 A 
ATOM     10  C   UNL     1      12.778  16.633  16.477  0.00  0.00    +0.000 A 
ATOM     11  C   UNL     1      12.178  15.323  16.788  0.00  0.00    +0.000 A 
ENDROOT
BRANCH   8  12
ATOM     12  O   UNL     1      14.838  14.740  22.194  0.00  0.00    +0.000 OA
ATOM     13  H   UNL     1      15.266  13.888  22.007  0.00  0.00    +0.000 HD
ENDBRANCH   8  12
TORSDOF 1
ENDMDL
