MODEL        6
REMARK  Name = 5281426
REMARK  1 active torsions:
REMARK  status: ('A' for Active; 'I' for Inactive)
REMARK    1  A    between atoms: O_2  and  C_9
REMARK                            x       y       z     vdW  Elec       q    Type
REMARK                         _______ _______ _______ _____ _____    ______ ____
ROOT
ATOM      1  O   UNL     1     -43.399  36.330  -6.365  0.00  0.00    +0.000 OA
ATOM      2  O   UNL     1     -44.851  34.703  -5.663  0.00  0.00    +0.000 OA
ATOM      3  C   UNL     1     -44.091  37.847  -8.140  0.00  0.00    +0.000 A 
ATOM      4  C   UNL     1     -43.134  37.417  -7.223  0.00  0.00    +0.000 A 
ATOM      5  C   UNL     1     -43.791  38.928  -8.971  0.00  0.00    +0.000 A 
ATOM      6  C   UNL     1     -41.891  38.038  -7.115  0.00  0.00    +0.000 A 
ATOM      7  C   UNL     1     -45.367  37.153  -8.197  0.00  0.00    +0.000 A 
ATOM      8  C   UNL     1     -41.601  39.115  -7.949  0.00  0.00    +0.000 A 
ATOM      9  C   UNL     1     -42.548  39.560  -8.874  0.00  0.00    +0.000 A 
ATOM     10  C   UNL     1     -45.610  36.123  -7.382  0.00  0.00    +0.000 A 
ATOM     11  C   UNL     1     -44.614  35.651  -6.403  0.00  0.00    +0.000 A 
ENDROOT
BRANCH   8  12
ATOM     12  O   UNL     1     -40.393  39.736  -7.863  0.00  0.00    +0.000 OA
ATOM     13  H   UNL     1     -40.026  39.837  -8.757  0.00  0.00    +0.000 HD
ENDBRANCH   8  12
TORSDOF 1
ENDMDL
