MODEL        6
REMARK  Name = 5281426
REMARK  1 active torsions:
REMARK  status: ('A' for Active; 'I' for Inactive)
REMARK    1  A    between atoms: O_2  and  C_9
REMARK                            x       y       z     vdW  Elec       q    Type
REMARK                         _______ _______ _______ _____ _____    ______ ____
ROOT
ATOM      1  O   UNL     1      28.771   3.733  59.274  0.00  0.00    +0.000 OA
ATOM      2  O   UNL     1      28.041   3.613  61.443  0.00  0.00    +0.000 OA
ATOM      3  C   UNL     1      28.396   5.781  58.012  0.00  0.00    +0.000 A 
ATOM      4  C   UNL     1      28.893   4.482  58.086  0.00  0.00    +0.000 A 
ATOM      5  C   UNL     1      28.538   6.491  56.817  0.00  0.00    +0.000 A 
ATOM      6  C   UNL     1      29.526   3.876  57.002  0.00  0.00    +0.000 A 
ATOM      7  C   UNL     1      27.748   6.351  59.181  0.00  0.00    +0.000 A 
ATOM      8  C   UNL     1      29.662   4.591  55.815  0.00  0.00    +0.000 A 
ATOM      9  C   UNL     1      29.170   5.895  55.722  0.00  0.00    +0.000 A 
ATOM     10  C   UNL     1      27.636   5.634  60.303  0.00  0.00    +0.000 A 
ATOM     11  C   UNL     1      28.154   4.259  60.406  0.00  0.00    +0.000 A 
ENDROOT
BRANCH   8  12
ATOM     12  O   UNL     1      30.275   4.020  54.742  0.00  0.00    +0.000 OA
ATOM     13  H   UNL     1      30.718   4.714  54.225  0.00  0.00    +0.000 HD
ENDBRANCH   8  12
TORSDOF 1
ENDMDL
