MODEL        6
REMARK  Name = 5281426
REMARK  1 active torsions:
REMARK  status: ('A' for Active; 'I' for Inactive)
REMARK    1  A    between atoms: O_2  and  C_9
REMARK                            x       y       z     vdW  Elec       q    Type
REMARK                         _______ _______ _______ _____ _____    ______ ____
ROOT
ATOM      1  O   UNL     1       0.128  57.976 -25.030  0.00  0.00    +0.000 OA
ATOM      2  O   UNL     1       0.308  58.682 -27.202  0.00  0.00    +0.000 OA
ATOM      3  C   UNL     1      -0.993  55.866 -24.562  0.00  0.00    +0.000 A 
ATOM      4  C   UNL     1      -0.323  57.002 -24.115  0.00  0.00    +0.000 A 
ATOM      5  C   UNL     1      -1.423  54.924 -23.624  0.00  0.00    +0.000 A 
ATOM      6  C   UNL     1      -0.073  57.222 -22.761  0.00  0.00    +0.000 A 
ATOM      7  C   UNL     1      -1.219  55.701 -25.987  0.00  0.00    +0.000 A 
ATOM      8  C   UNL     1      -0.506  56.277 -21.834  0.00  0.00    +0.000 A 
ATOM      9  C   UNL     1      -1.179  55.131 -22.264  0.00  0.00    +0.000 A 
ATOM     10  C   UNL     1      -0.789  56.628 -26.847  0.00  0.00    +0.000 A 
ATOM     11  C   UNL     1      -0.078  57.839 -26.399  0.00  0.00    +0.000 A 
ENDROOT
BRANCH   8  12
ATOM     12  O   UNL     1      -0.274  56.470 -20.506  0.00  0.00    +0.000 OA
ATOM     13  H   UNL     1       0.315  57.236 -20.398  0.00  0.00    +0.000 HD
ENDBRANCH   8  12
TORSDOF 1
ENDMDL
