MODEL        6
REMARK  Name = 5281426
REMARK  1 active torsions:
REMARK  status: ('A' for Active; 'I' for Inactive)
REMARK    1  A    between atoms: O_2  and  C_9
REMARK                            x       y       z     vdW  Elec       q    Type
REMARK                         _______ _______ _______ _____ _____    ______ ____
ROOT
ATOM      1  O   UNL     1     -11.358 -19.898   9.043  0.00  0.00    +0.000 OA
ATOM      2  O   UNL     1     -11.829 -20.895  11.051  0.00  0.00    +0.000 OA
ATOM      3  C   UNL     1     -10.715 -17.550   9.010  0.00  0.00    +0.000 A 
ATOM      4  C   UNL     1     -10.974 -18.741   8.335  0.00  0.00    +0.000 A 
ATOM      5  C   UNL     1     -10.335 -16.426   8.273  0.00  0.00    +0.000 A 
ATOM      6  C   UNL     1     -10.864 -18.837   6.949  0.00  0.00    +0.000 A 
ATOM      7  C   UNL     1     -10.848 -17.522  10.456  0.00  0.00    +0.000 A 
ATOM      8  C   UNL     1     -10.486 -17.710   6.223  0.00  0.00    +0.000 A 
ATOM      9  C   UNL     1     -10.222 -16.508   6.883  0.00  0.00    +0.000 A 
ATOM     10  C   UNL     1     -11.214 -18.622  11.119  0.00  0.00    +0.000 A 
ATOM     11  C   UNL     1     -11.492 -19.894  10.428  0.00  0.00    +0.000 A 
ENDROOT
BRANCH   8  12
ATOM     12  O   UNL     1     -10.373 -17.780   4.868  0.00  0.00    +0.000 OA
ATOM     13  H   UNL     1      -9.996 -18.643   4.627  0.00  0.00    +0.000 HD
ENDBRANCH   8  12
TORSDOF 1
ENDMDL
