MODEL        6
REMARK  Name = 5281426
REMARK  1 active torsions:
REMARK  status: ('A' for Active; 'I' for Inactive)
REMARK    1  A    between atoms: O_2  and  C_9
REMARK                            x       y       z     vdW  Elec       q    Type
REMARK                         _______ _______ _______ _____ _____    ______ ____
ROOT
ATOM      1  O   UNL     1      14.051  10.481  12.195  0.00  0.00    +0.000 OA
ATOM      2  O   UNL     1      13.326  11.420  10.235  0.00  0.00    +0.000 OA
ATOM      3  C   UNL     1      16.417  10.594  12.756  0.00  0.00    +0.000 A 
ATOM      4  C   UNL     1      15.120  10.193  13.068  0.00  0.00    +0.000 A 
ATOM      5  C   UNL     1      17.449  10.291  13.647  0.00  0.00    +0.000 A 
ATOM      6  C   UNL     1      14.828   9.501  14.242  0.00  0.00    +0.000 A 
ATOM      7  C   UNL     1      16.649  11.312  11.515  0.00  0.00    +0.000 A 
ATOM      8  C   UNL     1      15.864   9.203  15.124  0.00  0.00    +0.000 A 
ATOM      9  C   UNL     1      17.171   9.597  14.828  0.00  0.00    +0.000 A 
ATOM     10  C   UNL     1      15.631  11.580  10.693  0.00  0.00    +0.000 A 
ATOM     11  C   UNL     1      14.249  11.168  11.001  0.00  0.00    +0.000 A 
ENDROOT
BRANCH   8  12
ATOM     12  O   UNL     1      15.604   8.527  16.276  0.00  0.00    +0.000 OA
ATOM     13  H   UNL     1      16.324   7.894  16.440  0.00  0.00    +0.000 HD
ENDBRANCH   8  12
TORSDOF 1
ENDMDL
