MODEL        6
REMARK  Name = 5281426
REMARK  1 active torsions:
REMARK  status: ('A' for Active; 'I' for Inactive)
REMARK    1  A    between atoms: O_2  and  C_9
REMARK                            x       y       z     vdW  Elec       q    Type
REMARK                         _______ _______ _______ _____ _____    ______ ____
ROOT
ATOM      1  O   UNL     1      13.183  36.634  77.209  0.00  0.00    +0.000 OA
ATOM      2  O   UNL     1      12.099  36.607  75.191  0.00  0.00    +0.000 OA
ATOM      3  C   UNL     1      13.717  38.776  78.236  0.00  0.00    +0.000 A 
ATOM      4  C   UNL     1      13.745  37.383  78.263  0.00  0.00    +0.000 A 
ATOM      5  C   UNL     1      14.283  39.482  79.300  0.00  0.00    +0.000 A 
ATOM      6  C   UNL     1      14.320  36.681  79.321  0.00  0.00    +0.000 A 
ATOM      7  C   UNL     1      13.100  39.442  77.102  0.00  0.00    +0.000 A 
ATOM      8  C   UNL     1      14.882  37.395  80.376  0.00  0.00    +0.000 A 
ATOM      9  C   UNL     1      14.864  38.791  80.367  0.00  0.00    +0.000 A 
ATOM     10  C   UNL     1      12.571  38.725  76.107  0.00  0.00    +0.000 A 
ATOM     11  C   UNL     1      12.587  37.251  76.113  0.00  0.00    +0.000 A 
ENDROOT
BRANCH   8  12
ATOM     12  O   UNL     1      15.451  36.731  81.420  0.00  0.00    +0.000 OA
ATOM     13  H   UNL     1      16.057  37.333  81.884  0.00  0.00    +0.000 HD
ENDBRANCH   8  12
TORSDOF 1
ENDMDL
