MODEL        6
REMARK  Name = 5281426
REMARK  1 active torsions:
REMARK  status: ('A' for Active; 'I' for Inactive)
REMARK    1  A    between atoms: O_2  and  C_9
REMARK                            x       y       z     vdW  Elec       q    Type
REMARK                         _______ _______ _______ _____ _____    ______ ____
ROOT
ATOM      1  O   UNL     1     150.497 172.239 140.145  0.00  0.00    +0.000 OA
ATOM      2  O   UNL     1     148.260 172.602 139.810  0.00  0.00    +0.000 OA
ATOM      3  C   UNL     1     151.382 172.315 142.411  0.00  0.00    +0.000 A 
ATOM      4  C   UNL     1     151.579 172.141 141.043  0.00  0.00    +0.000 A 
ATOM      5  C   UNL     1     152.479 172.208 143.270  0.00  0.00    +0.000 A 
ATOM      6  C   UNL     1     152.838 171.864 140.513  0.00  0.00    +0.000 A 
ATOM      7  C   UNL     1     150.042 172.601 142.895  0.00  0.00    +0.000 A 
ATOM      8  C   UNL     1     153.925 171.760 141.377  0.00  0.00    +0.000 A 
ATOM      9  C   UNL     1     153.747 171.932 142.752  0.00  0.00    +0.000 A 
ATOM     10  C   UNL     1     149.023 172.693 142.037  0.00  0.00    +0.000 A 
ATOM     11  C   UNL     1     149.206 172.512 140.586  0.00  0.00    +0.000 A 
ENDROOT
BRANCH   8  12
ATOM     12  O   UNL     1     155.165 171.491 140.882  0.00  0.00    +0.000 OA
ATOM     13  H   UNL     1     155.140 171.565 139.912  0.00  0.00    +0.000 HD
ENDBRANCH   8  12
TORSDOF 1
ENDMDL
