MODEL        2
REMARK  Name = 10466307
REMARK  6 active torsions:
REMARK  status: ('A' for Active; 'I' for Inactive)
REMARK    1  A    between atoms: O_2  and  C_9
REMARK    2  A    between atoms: O_3  and  C_11
REMARK    3  A    between atoms: O_4  and  C_15
REMARK    4  A    between atoms: O_4  and  C_16
REMARK    5  A    between atoms: C_8  and  C_13
REMARK    6  A    between atoms: C_12  and  C_15
REMARK                            x       y       z     vdW  Elec       q    Type
REMARK                         _______ _______ _______ _____ _____    ______ ____
ROOT
ATOM      1  O   UNL     1      30.553  85.743  27.900  0.00  0.00    +0.000 OA
ATOM      2  C   UNL     1      29.846  85.185  25.588  0.00  0.00    +0.000 C 
ATOM      3  C   UNL     1      29.568  83.716  25.995  0.00  0.00    +0.000 C 
ATOM      4  C   UNL     1      28.449  85.833  25.585  0.00  0.00    +0.000 C 
ATOM      5  C   UNL     1      27.593  84.743  24.935  0.00  0.00    +0.000 C 
ATOM      6  C   UNL     1      28.103  83.449  25.571  0.00  0.00    +0.000 C 
ATOM      7  C   UNL     1      30.867  85.864  26.506  0.00  0.00    +0.000 C 
ATOM      8  C   UNL     1      29.779  83.506  27.468  0.00  0.00    +0.000 C 
ATOM      9  C   UNL     1      28.403  87.168  24.852  0.00  0.00    +0.000 C 
ATOM     10  C   UNL     1      30.199  84.477  28.287  0.00  0.00    +0.000 C 
ENDROOT
BRANCH   5  11
ATOM     11  O   UNL     1      27.807  84.700  23.529  0.00  0.00    +0.000 OA
ATOM     12  H   UNL     1      27.582  83.803  23.227  0.00  0.00    +0.000 HD
ENDBRANCH   5  11
BRANCH   7  13
ATOM     13  O   UNL     1      32.160  85.320  26.223  0.00  0.00    +0.000 OA
ATOM     14  H   UNL     1      32.834  85.841  26.689  0.00  0.00    +0.000 HD
ENDBRANCH   7  13
BRANCH   8  16
ATOM     15  O   UNL     1      29.089  81.239  27.433  0.00  0.00    +0.000 OA
ATOM     16  C   UNL     1      29.513  82.195  28.064  0.00  0.00    +0.000 C 
BRANCH  16  17
ATOM     17  O   UNL     1      29.816  82.249  29.386  0.00  0.00    +0.000 OA
ATOM     18  C   UNL     1      31.014  81.566  29.769  0.00  0.00    +0.000 C 
ENDBRANCH  16  17
ENDBRANCH   8  16
TORSDOF 4
ENDMDL
