MODEL        2
REMARK  Name = 10466307
REMARK  6 active torsions:
REMARK  status: ('A' for Active; 'I' for Inactive)
REMARK    1  A    between atoms: O_2  and  C_9
REMARK    2  A    between atoms: O_3  and  C_11
REMARK    3  A    between atoms: O_4  and  C_15
REMARK    4  A    between atoms: O_4  and  C_16
REMARK    5  A    between atoms: C_8  and  C_13
REMARK    6  A    between atoms: C_12  and  C_15
REMARK                            x       y       z     vdW  Elec       q    Type
REMARK                         _______ _______ _______ _____ _____    ______ ____
ROOT
ATOM      1  O   UNL     1      10.665  -3.462  17.528  0.00  0.00    +0.000 OA
ATOM      2  C   UNL     1      11.144  -1.104  18.133  0.00  0.00    +0.000 C 
ATOM      3  C   UNL     1      12.669  -1.373  18.098  0.00  0.00    +0.000 C 
ATOM      4  C   UNL     1      10.862  -0.430  16.778  0.00  0.00    +0.000 C 
ATOM      5  C   UNL     1      12.057   0.515  16.636  0.00  0.00    +0.000 C 
ATOM      6  C   UNL     1      13.244  -0.320  17.119  0.00  0.00    +0.000 C 
ATOM      7  C   UNL     1      10.331  -2.375  18.401  0.00  0.00    +0.000 C 
ATOM      8  C   UNL     1      12.969  -2.778  17.659  0.00  0.00    +0.000 C 
ATOM      9  C   UNL     1       9.512   0.275  16.722  0.00  0.00    +0.000 C 
ATOM     10  C   UNL     1      12.012  -3.673  17.384  0.00  0.00    +0.000 C 
ENDROOT
BRANCH   5  11
ATOM     11  O   UNL     1      11.905   1.656  17.474  0.00  0.00    +0.000 OA
ATOM     12  H   UNL     1      12.787   2.048  17.595  0.00  0.00    +0.000 HD
ENDBRANCH   5  11
BRANCH   7  13
ATOM     13  O   UNL     1      10.510  -2.745  19.772  0.00  0.00    +0.000 OA
ATOM     14  H   UNL     1      11.372  -2.421  20.078  0.00  0.00    +0.000 HD
ENDBRANCH   7  13
BRANCH   8  16
ATOM     15  O   UNL     1      15.054  -3.594  18.434  0.00  0.00    +0.000 OA
ATOM     16  C   UNL     1      14.357  -3.216  17.505  0.00  0.00    +0.000 C 
BRANCH  16  17
ATOM     17  O   UNL     1      14.700  -3.124  16.195  0.00  0.00    +0.000 OA
ATOM     18  C   UNL     1      14.661  -4.354  15.464  0.00  0.00    +0.000 C 
ENDBRANCH  16  17
ENDBRANCH   8  16
TORSDOF 4
ENDMDL
