MODEL        2
REMARK  Name = 10466307
REMARK  6 active torsions:
REMARK  status: ('A' for Active; 'I' for Inactive)
REMARK    1  A    between atoms: O_2  and  C_9
REMARK    2  A    between atoms: O_3  and  C_11
REMARK    3  A    between atoms: O_4  and  C_15
REMARK    4  A    between atoms: O_4  and  C_16
REMARK    5  A    between atoms: C_8  and  C_13
REMARK    6  A    between atoms: C_12  and  C_15
REMARK                            x       y       z     vdW  Elec       q    Type
REMARK                         _______ _______ _______ _____ _____    ______ ____
ROOT
ATOM      1  O   UNL     1      27.784  40.218  17.117  0.00  0.00    +0.000 OA
ATOM      2  C   UNL     1      28.740  38.060  16.351  0.00  0.00    +0.000 C 
ATOM      3  C   UNL     1      28.129  38.256  14.941  0.00  0.00    +0.000 C 
ATOM      4  C   UNL     1      30.210  38.482  16.173  0.00  0.00    +0.000 C 
ATOM      5  C   UNL     1      30.558  37.858  14.819  0.00  0.00    +0.000 C 
ATOM      6  C   UNL     1      29.321  38.128  13.962  0.00  0.00    +0.000 C 
ATOM      7  C   UNL     1      27.977  38.833  17.432  0.00  0.00    +0.000 C 
ATOM      8  C   UNL     1      27.437  39.584  14.822  0.00  0.00    +0.000 C 
ATOM      9  C   UNL     1      31.113  38.023  17.310  0.00  0.00    +0.000 C 
ATOM     10  C   UNL     1      27.341  40.447  15.840  0.00  0.00    +0.000 C 
ENDROOT
BRANCH   5  11
ATOM     11  O   UNL     1      30.756  36.454  14.942  0.00  0.00    +0.000 OA
ATOM     12  H   UNL     1      30.701  36.234  15.889  0.00  0.00    +0.000 HD
ENDBRANCH   5  11
BRANCH   7  13
ATOM     13  O   UNL     1      26.723  38.179  17.654  0.00  0.00    +0.000 OA
ATOM     14  H   UNL     1      26.110  38.801  18.079  0.00  0.00    +0.000 HD
ENDBRANCH   7  13
BRANCH   8  16
ATOM     15  O   UNL     1      26.573  39.203  12.648  0.00  0.00    +0.000 OA
ATOM     16  C   UNL     1      26.842  39.986  13.546  0.00  0.00    +0.000 C 
BRANCH  16  17
ATOM     17  O   UNL     1      26.655  41.330  13.557  0.00  0.00    +0.000 OA
ATOM     18  C   UNL     1      27.801  42.112  13.200  0.00  0.00    +0.000 C 
ENDBRANCH  16  17
ENDBRANCH   8  16
TORSDOF 4
ENDMDL
