MODEL        2
REMARK  Name = 10466307
REMARK  6 active torsions:
REMARK  status: ('A' for Active; 'I' for Inactive)
REMARK    1  A    between atoms: O_2  and  C_9
REMARK    2  A    between atoms: O_3  and  C_11
REMARK    3  A    between atoms: O_4  and  C_15
REMARK    4  A    between atoms: O_4  and  C_16
REMARK    5  A    between atoms: C_8  and  C_13
REMARK    6  A    between atoms: C_12  and  C_15
REMARK                            x       y       z     vdW  Elec       q    Type
REMARK                         _______ _______ _______ _____ _____    ______ ____
ROOT
ATOM      1  O   UNL     1       8.055   6.230  94.055  0.00  0.00    +0.000 OA
ATOM      2  C   UNL     1       9.612   8.131  93.710  0.00  0.00    +0.000 C 
ATOM      3  C   UNL     1       8.629   9.102  94.411  0.00  0.00    +0.000 C 
ATOM      4  C   UNL     1      10.650   7.812  94.802  0.00  0.00    +0.000 C 
ATOM      5  C   UNL     1      10.864   9.183  95.449  0.00  0.00    +0.000 C 
ATOM      6  C   UNL     1       9.455   9.770  95.538  0.00  0.00    +0.000 C 
ATOM      7  C   UNL     1       8.904   6.907  93.119  0.00  0.00    +0.000 C 
ATOM      8  C   UNL     1       7.426   8.377  94.943  0.00  0.00    +0.000 C 
ATOM      9  C   UNL     1      11.926   7.184  94.257  0.00  0.00    +0.000 C 
ATOM     10  C   UNL     1       7.238   7.063  94.775  0.00  0.00    +0.000 C 
ENDROOT
BRANCH   5  11
ATOM     11  O   UNL     1      11.675  10.012  94.624  0.00  0.00    +0.000 OA
ATOM     12  H   UNL     1      11.955  10.774  95.161  0.00  0.00    +0.000 HD
ENDBRANCH   5  11
BRANCH   7  13
ATOM     13  O   UNL     1       8.165   7.326  91.967  0.00  0.00    +0.000 OA
ATOM     14  H   UNL     1       8.295   8.279  91.835  0.00  0.00    +0.000 HD
ENDBRANCH   7  13
BRANCH   8  16
ATOM     15  O   UNL     1       6.366  10.328  95.772  0.00  0.00    +0.000 OA
ATOM     16  C   UNL     1       6.403   9.110  95.692  0.00  0.00    +0.000 C 
BRANCH  16  17
ATOM     17  O   UNL     1       5.547   8.215  96.248  0.00  0.00    +0.000 OA
ATOM     18  C   UNL     1       4.399   8.783  96.889  0.00  0.00    +0.000 C 
ENDBRANCH  16  17
ENDBRANCH   8  16
TORSDOF 4
ENDMDL
