MODEL        2
REMARK  Name = 10466307
REMARK  6 active torsions:
REMARK  status: ('A' for Active; 'I' for Inactive)
REMARK    1  A    between atoms: O_2  and  C_9
REMARK    2  A    between atoms: O_3  and  C_11
REMARK    3  A    between atoms: O_4  and  C_15
REMARK    4  A    between atoms: O_4  and  C_16
REMARK    5  A    between atoms: C_8  and  C_13
REMARK    6  A    between atoms: C_12  and  C_15
REMARK                            x       y       z     vdW  Elec       q    Type
REMARK                         _______ _______ _______ _____ _____    ______ ____
ROOT
ATOM      1  O   UNL     1      22.612  -2.825   6.408  0.00  0.00    +0.000 OA
ATOM      2  C   UNL     1      22.072  -1.974   8.676  0.00  0.00    +0.000 C 
ATOM      3  C   UNL     1      20.921  -1.107   8.109  0.00  0.00    +0.000 C 
ATOM      4  C   UNL     1      21.350  -3.209   9.246  0.00  0.00    +0.000 C 
ATOM      5  C   UNL     1      20.125  -2.582   9.916  0.00  0.00    +0.000 C 
ATOM      6  C   UNL     1      19.667  -1.517   8.919  0.00  0.00    +0.000 C 
ATOM      7  C   UNL     1      23.144  -2.285   7.625  0.00  0.00    +0.000 C 
ATOM      8  C   UNL     1      20.740  -1.330   6.634  0.00  0.00    +0.000 C 
ATOM      9  C   UNL     1      22.215  -4.031  10.194  0.00  0.00    +0.000 C 
ATOM     10  C   UNL     1      21.524  -2.148   5.922  0.00  0.00    +0.000 C 
ENDROOT
BRANCH   5  11
ATOM     11  O   UNL     1      20.483  -1.960  11.147  0.00  0.00    +0.000 OA
ATOM     12  H   UNL     1      20.387  -2.627  11.849  0.00  0.00    +0.000 HD
ENDBRANCH   5  11
BRANCH   7  13
ATOM     13  O   UNL     1      23.888  -1.088   7.373  0.00  0.00    +0.000 OA
ATOM     14  H   UNL     1      24.660  -1.304   6.825  0.00  0.00    +0.000 HD
ENDBRANCH   7  13
BRANCH   8  16
ATOM     15  O   UNL     1      18.504  -1.028   5.910  0.00  0.00    +0.000 OA
ATOM     16  C   UNL     1      19.664  -0.644   5.918  0.00  0.00    +0.000 C 
BRANCH  16  17
ATOM     17  O   UNL     1      20.180   0.448   5.298  0.00  0.00    +0.000 OA
ATOM     18  C   UNL     1      20.934   0.180   4.110  0.00  0.00    +0.000 C 
ENDBRANCH  16  17
ENDBRANCH   8  16
TORSDOF 4
ENDMDL
