MODEL        2
REMARK  Name = 10466307
REMARK  6 active torsions:
REMARK  status: ('A' for Active; 'I' for Inactive)
REMARK    1  A    between atoms: O_2  and  C_9
REMARK    2  A    between atoms: O_3  and  C_11
REMARK    3  A    between atoms: O_4  and  C_15
REMARK    4  A    between atoms: O_4  and  C_16
REMARK    5  A    between atoms: C_8  and  C_13
REMARK    6  A    between atoms: C_12  and  C_15
REMARK                            x       y       z     vdW  Elec       q    Type
REMARK                         _______ _______ _______ _____ _____    ______ ____
ROOT
ATOM      1  O   UNL     1      56.893  33.771  76.223  0.00  0.00    +0.000 OA
ATOM      2  C   UNL     1      59.301  33.806  75.624  0.00  0.00    +0.000 C 
ATOM      3  C   UNL     1      59.617  32.751  76.714  0.00  0.00    +0.000 C 
ATOM      4  C   UNL     1      59.253  32.983  74.324  0.00  0.00    +0.000 C 
ATOM      5  C   UNL     1      60.439  32.032  74.504  0.00  0.00    +0.000 C 
ATOM      6  C   UNL     1      60.349  31.607  75.970  0.00  0.00    +0.000 C 
ATOM      7  C   UNL     1      58.026  34.600  75.931  0.00  0.00    +0.000 C 
ATOM      8  C   UNL     1      58.367  32.275  77.397  0.00  0.00    +0.000 C 
ATOM      9  C   UNL     1      59.336  33.837  73.065  0.00  0.00    +0.000 C 
ATOM     10  C   UNL     1      57.153  32.757  77.107  0.00  0.00    +0.000 C 
ENDROOT
BRANCH   5  11
ATOM     11  O   UNL     1      61.671  32.710  74.278  0.00  0.00    +0.000 OA
ATOM     12  H   UNL     1      62.238  32.116  73.756  0.00  0.00    +0.000 HD
ENDBRANCH   5  11
BRANCH   7  13
ATOM     13  O   UNL     1      58.300  35.493  77.014  0.00  0.00    +0.000 OA
ATOM     14  H   UNL     1      59.261  35.602  77.102  0.00  0.00    +0.000 HD
ENDBRANCH   7  13
BRANCH   8  16
ATOM     15  O   UNL     1      57.471  30.776  78.999  0.00  0.00    +0.000 OA
ATOM     16  C   UNL     1      58.446  31.232  78.422  0.00  0.00    +0.000 C 
BRANCH  16  17
ATOM     17  O   UNL     1      59.748  30.888  78.592  0.00  0.00    +0.000 OA
ATOM     18  C   UNL     1      60.033  30.135  79.777  0.00  0.00    +0.000 C 
ENDBRANCH  16  17
ENDBRANCH   8  16
TORSDOF 4
ENDMDL
