MODEL        3
REMARK  Name = 161313
REMARK  3 active torsions:
REMARK  status: ('A' for Active; 'I' for Inactive)
REMARK    1  A    between atoms: N_1  and  C_10
REMARK    2  A    between atoms: C_4  and  C_9
REMARK    3  A    between atoms: C_14  and  C_15
REMARK                            x       y       z     vdW  Elec       q    Type
REMARK                         _______ _______ _______ _____ _____    ______ ____
ROOT
ATOM      1  N   UNL     1      10.908  -0.561  15.852  0.00  0.00    +0.000 NA
ATOM      2  C   UNL     1      10.244   1.681  16.419  0.00  0.00    +0.000 A 
ATOM      3  C   UNL     1      10.997   1.636  17.578  0.00  0.00    +0.000 A 
ATOM      4  C   UNL     1      10.225   0.577  15.593  0.00  0.00    +0.000 A 
ATOM      5  C   UNL     1      11.714   0.482  17.879  0.00  0.00    +0.000 A 
ATOM      6  C   UNL     1      11.637  -0.578  16.990  0.00  0.00    +0.000 A 
ENDROOT
BRANCH   2   8
ATOM      7  N   UNL     1       8.067   2.922  16.620  0.00  0.00    +0.000 NA
ATOM      8  C   UNL     1       9.444   2.935  16.061  0.00  0.00    +0.000 C 
ATOM      9  C   UNL     1      10.236   4.177  16.533  0.00  0.00    +0.000 C 
ATOM     10  C   UNL     1       9.493   5.473  16.237  0.00  0.00    +0.000 C 
ATOM     11  C   UNL     1       8.089   5.408  16.818  0.00  0.00    +0.000 C 
ATOM     12  C   UNL     1       7.349   4.173  16.311  0.00  0.00    +0.000 C 
ATOM     13  C   UNL     1       7.278   1.793  16.112  0.00  0.00    +0.000 C 
ENDBRANCH   2   8
BRANCH   6  15
ATOM     14  N   UNL     1      14.147  -2.956  18.383  0.00  0.00    +0.000 NA
ATOM     15  C   UNL     1      12.355  -1.807  17.237  0.00  0.00    +0.000 A 
ATOM     16  C   UNL     1      11.989  -2.990  16.606  0.00  0.00    +0.000 A 
ATOM     17  C   UNL     1      13.431  -1.843  18.108  0.00  0.00    +0.000 A 
ATOM     18  C   UNL     1      12.701  -4.158  16.863  0.00  0.00    +0.000 A 
ATOM     19  C   UNL     1      13.761  -4.089  17.751  0.00  0.00    +0.000 A 
ENDBRANCH   6  15
TORSDOF 2
ENDMDL
