MODEL        3
REMARK  Name = 161313
REMARK  3 active torsions:
REMARK  status: ('A' for Active; 'I' for Inactive)
REMARK    1  A    between atoms: N_1  and  C_10
REMARK    2  A    between atoms: C_4  and  C_9
REMARK    3  A    between atoms: C_14  and  C_15
REMARK                            x       y       z     vdW  Elec       q    Type
REMARK                         _______ _______ _______ _____ _____    ______ ____
ROOT
ATOM      1  N   UNL     1      31.363  84.613  25.941  0.00  0.00    +0.000 NA
ATOM      2  C   UNL     1      30.407  86.582  24.942  0.00  0.00    +0.000 A 
ATOM      3  C   UNL     1      29.196  86.338  25.565  0.00  0.00    +0.000 A 
ATOM      4  C   UNL     1      31.452  85.707  25.153  0.00  0.00    +0.000 A 
ATOM      5  C   UNL     1      29.066  85.221  26.385  0.00  0.00    +0.000 A 
ATOM      6  C   UNL     1      30.170  84.398  26.538  0.00  0.00    +0.000 A 
ENDROOT
BRANCH   2   8
ATOM      7  N   UNL     1      31.992  88.265  23.955  0.00  0.00    +0.000 NA
ATOM      8  C   UNL     1      30.582  87.801  24.035  0.00  0.00    +0.000 C 
ATOM      9  C   UNL     1      30.018  87.460  22.636  0.00  0.00    +0.000 C 
ATOM     10  C   UNL     1      30.179  88.617  21.659  0.00  0.00    +0.000 C 
ATOM     11  C   UNL     1      31.632  89.063  21.620  0.00  0.00    +0.000 C 
ATOM     12  C   UNL     1      32.135  89.398  23.022  0.00  0.00    +0.000 C 
ATOM     13  C   UNL     1      32.512  88.671  25.267  0.00  0.00    +0.000 C 
ENDBRANCH   2   8
BRANCH   6  15
ATOM     14  N   UNL     1      30.195  82.258  29.590  0.00  0.00    +0.000 NA
ATOM     15  C   UNL     1      30.108  83.221  27.374  0.00  0.00    +0.000 A 
ATOM     16  C   UNL     1      29.915  81.960  26.824  0.00  0.00    +0.000 A 
ATOM     17  C   UNL     1      30.241  83.316  28.750  0.00  0.00    +0.000 A 
ATOM     18  C   UNL     1      29.862  80.846  27.656  0.00  0.00    +0.000 A 
ATOM     19  C   UNL     1      30.005  81.046  29.018  0.00  0.00    +0.000 A 
ENDBRANCH   6  15
TORSDOF 2
ENDMDL
