MODEL        3
REMARK  Name = 161313
REMARK  3 active torsions:
REMARK  status: ('A' for Active; 'I' for Inactive)
REMARK    1  A    between atoms: N_1  and  C_10
REMARK    2  A    between atoms: C_4  and  C_9
REMARK    3  A    between atoms: C_14  and  C_15
REMARK                            x       y       z     vdW  Elec       q    Type
REMARK                         _______ _______ _______ _____ _____    ______ ____
ROOT
ATOM      1  N   UNL     1      31.088  37.889  16.227  0.00  0.00    +0.000 NA
ATOM      2  C   UNL     1      32.258  36.461  14.684  0.00  0.00    +0.000 A 
ATOM      3  C   UNL     1      31.113  36.310  13.921  0.00  0.00    +0.000 A 
ATOM      4  C   UNL     1      32.205  37.248  15.815  0.00  0.00    +0.000 A 
ATOM      5  C   UNL     1      29.945  36.956  14.313  0.00  0.00    +0.000 A 
ATOM      6  C   UNL     1      29.985  37.726  15.463  0.00  0.00    +0.000 A 
ENDROOT
BRANCH   2   8
ATOM      7  N   UNL     1      34.749  36.644  14.409  0.00  0.00    +0.000 NA
ATOM      8  C   UNL     1      33.558  35.764  14.280  0.00  0.00    +0.000 C 
ATOM      9  C   UNL     1      33.711  34.476  15.123  0.00  0.00    +0.000 C 
ATOM     10  C   UNL     1      35.000  33.734  14.799  0.00  0.00    +0.000 C 
ATOM     11  C   UNL     1      36.187  34.675  14.935  0.00  0.00    +0.000 C 
ATOM     12  C   UNL     1      35.991  35.921  14.075  0.00  0.00    +0.000 C 
ATOM     13  C   UNL     1      34.653  37.830  13.548  0.00  0.00    +0.000 C 
ENDBRANCH   2   8
BRANCH   6  15
ATOM     14  N   UNL     1      27.182  38.783  17.680  0.00  0.00    +0.000 NA
ATOM     15  C   UNL     1      28.810  38.425  15.930  0.00  0.00    +0.000 A 
ATOM     16  C   UNL     1      28.179  39.376  15.137  0.00  0.00    +0.000 A 
ATOM     17  C   UNL     1      28.277  38.167  17.182  0.00  0.00    +0.000 A 
ATOM     18  C   UNL     1      27.049  40.032  15.614  0.00  0.00    +0.000 A 
ATOM     19  C   UNL     1      26.595  39.703  16.881  0.00  0.00    +0.000 A 
ENDBRANCH   6  15
TORSDOF 2
ENDMDL
