MODEL        3
REMARK  Name = 161313
REMARK  3 active torsions:
REMARK  status: ('A' for Active; 'I' for Inactive)
REMARK    1  A    between atoms: N_1  and  C_10
REMARK    2  A    between atoms: C_4  and  C_9
REMARK    3  A    between atoms: C_14  and  C_15
REMARK                            x       y       z     vdW  Elec       q    Type
REMARK                         _______ _______ _______ _____ _____    ______ ____
ROOT
ATOM      1  N   UNL     1      59.633  30.437  76.506  0.00  0.00    +0.000 NA
ATOM      2  C   UNL     1      59.676  32.284  74.965  0.00  0.00    +0.000 A 
ATOM      3  C   UNL     1      60.411  33.042  75.859  0.00  0.00    +0.000 A 
ATOM      4  C   UNL     1      59.311  31.003  75.321  0.00  0.00    +0.000 A 
ATOM      5  C   UNL     1      60.762  32.493  77.088  0.00  0.00    +0.000 A 
ATOM      6  C   UNL     1      60.352  31.198  77.360  0.00  0.00    +0.000 A 
ENDROOT
BRANCH   2   8
ATOM      7  N   UNL     1      58.665  34.210  73.706  0.00  0.00    +0.000 NA
ATOM      8  C   UNL     1      59.275  32.858  73.606  0.00  0.00    +0.000 C 
ATOM      9  C   UNL     1      60.518  32.865  72.685  0.00  0.00    +0.000 C 
ATOM     10  C   UNL     1      60.209  33.449  71.314  0.00  0.00    +0.000 C 
ATOM     11  C   UNL     1      59.579  34.825  71.468  0.00  0.00    +0.000 C 
ATOM     12  C   UNL     1      58.351  34.760  72.374  0.00  0.00    +0.000 C 
ATOM     13  C   UNL     1      57.435  34.201  74.509  0.00  0.00    +0.000 C 
ENDBRANCH   2   8
BRANCH   6  15
ATOM     14  N   UNL     1      61.989  30.565  80.648  0.00  0.00    +0.000 NA
ATOM     15  C   UNL     1      60.680  30.564  78.616  0.00  0.00    +0.000 A 
ATOM     16  C   UNL     1      60.051  29.390  79.012  0.00  0.00    +0.000 A 
ATOM     17  C   UNL     1      61.634  31.107  79.462  0.00  0.00    +0.000 A 
ATOM     18  C   UNL     1      60.389  28.802  80.227  0.00  0.00    +0.000 A 
ATOM     19  C   UNL     1      61.355  29.423  81.001  0.00  0.00    +0.000 A 
ENDBRANCH   6  15
TORSDOF 2
ENDMDL
