MODEL        3
REMARK  Name = 161313
REMARK  3 active torsions:
REMARK  status: ('A' for Active; 'I' for Inactive)
REMARK    1  A    between atoms: N_1  and  C_10
REMARK    2  A    between atoms: C_4  and  C_9
REMARK    3  A    between atoms: C_14  and  C_15
REMARK                            x       y       z     vdW  Elec       q    Type
REMARK                         _______ _______ _______ _____ _____    ______ ____
ROOT
ATOM      1  N   UNL     1       6.628   5.637  93.833  0.00  0.00    +0.000 NA
ATOM      2  C   UNL     1       7.957   4.199  92.435  0.00  0.00    +0.000 A 
ATOM      3  C   UNL     1       9.009   5.096  92.472  0.00  0.00    +0.000 A 
ATOM      4  C   UNL     1       6.799   4.502  93.119  0.00  0.00    +0.000 A 
ATOM      5  C   UNL     1       8.872   6.276  93.196  0.00  0.00    +0.000 A 
ATOM      6  C   UNL     1       7.672   6.497  93.853  0.00  0.00    +0.000 A 
ENDROOT
BRANCH   2   8
ATOM      7  N   UNL     1       9.147   2.935  90.616  0.00  0.00    +0.000 NA
ATOM      8  C   UNL     1       8.077   2.893  91.647  0.00  0.00    +0.000 C 
ATOM      9  C   UNL     1       8.298   1.732  92.646  0.00  0.00    +0.000 C 
ATOM     10  C   UNL     1       8.456   0.394  91.938  0.00  0.00    +0.000 C 
ATOM     11  C   UNL     1       9.552   0.490  90.888  0.00  0.00    +0.000 C 
ATOM     12  C   UNL     1       9.278   1.640  89.923  0.00  0.00    +0.000 C 
ATOM     13  C   UNL     1       8.903   3.980  89.614  0.00  0.00    +0.000 C 
ENDBRANCH   2   8
BRANCH   6  15
ATOM     14  N   UNL     1       6.053   8.957  96.137  0.00  0.00    +0.000 NA
ATOM     15  C   UNL     1       7.458   7.699  94.625  0.00  0.00    +0.000 A 
ATOM     16  C   UNL     1       8.389   8.730  94.619  0.00  0.00    +0.000 A 
ATOM     17  C   UNL     1       6.316   7.860  95.393  0.00  0.00    +0.000 A 
ATOM     18  C   UNL     1       8.154   9.876  95.372  0.00  0.00    +0.000 A 
ATOM     19  C   UNL     1       6.983   9.940  96.107  0.00  0.00    +0.000 A 
ENDBRANCH   6  15
TORSDOF 2
ENDMDL
