MODEL        3
REMARK  Name = 161313
REMARK  3 active torsions:
REMARK  status: ('A' for Active; 'I' for Inactive)
REMARK    1  A    between atoms: N_1  and  C_10
REMARK    2  A    between atoms: C_4  and  C_9
REMARK    3  A    between atoms: C_14  and  C_15
REMARK                            x       y       z     vdW  Elec       q    Type
REMARK                         _______ _______ _______ _____ _____    ______ ____
ROOT
ATOM      1  N   UNL     1      21.504  -1.542   5.433  0.00  0.00    +0.000 NA
ATOM      2  C   UNL     1      21.581  -2.597   7.595  0.00  0.00    +0.000 A 
ATOM      3  C   UNL     1      22.942  -2.812   7.466  0.00  0.00    +0.000 A 
ATOM      4  C   UNL     1      20.907  -1.967   6.570  0.00  0.00    +0.000 A 
ATOM      5  C   UNL     1      23.592  -2.388   6.311  0.00  0.00    +0.000 A 
ATOM      6  C   UNL     1      22.834  -1.764   5.334  0.00  0.00    +0.000 A 
ENDROOT
BRANCH   2   8
ATOM      7  N   UNL     1      20.233  -1.922   9.606  0.00  0.00    +0.000 NA
ATOM      8  C   UNL     1      20.838  -3.051   8.852  0.00  0.00    +0.000 C 
ATOM      9  C   UNL     1      19.772  -4.096   8.445  0.00  0.00    +0.000 C 
ATOM     10  C   UNL     1      18.965  -4.582   9.641  0.00  0.00    +0.000 C 
ATOM     11  C   UNL     1      18.377  -3.394  10.385  0.00  0.00    +0.000 C 
ATOM     12  C   UNL     1      19.470  -2.402  10.774  0.00  0.00    +0.000 C 
ATOM     13  C   UNL     1      21.247  -0.966  10.070  0.00  0.00    +0.000 C 
ENDBRANCH   2   8
BRANCH   6  15
ATOM     14  N   UNL     1      25.257  -1.441   2.521  0.00  0.00    +0.000 NA
ATOM     15  C   UNL     1      23.441  -1.297   4.109  0.00  0.00    +0.000 A 
ATOM     16  C   UNL     1      22.845  -0.297   3.350  0.00  0.00    +0.000 A 
ATOM     17  C   UNL     1      24.635  -1.832   3.656  0.00  0.00    +0.000 A 
ATOM     18  C   UNL     1      23.455   0.133   2.175  0.00  0.00    +0.000 A 
ATOM     19  C   UNL     1      24.648  -0.466   1.808  0.00  0.00    +0.000 A 
ENDBRANCH   6  15
TORSDOF 2
ENDMDL
