MODEL        5
REMARK  Name = 5280863
REMARK  5 active torsions:
REMARK  status: ('A' for Active; 'I' for Inactive)
REMARK    1  A    between atoms: O_2  and  C_11
REMARK    2  A    between atoms: O_3  and  C_13
REMARK    3  A    between atoms: O_5  and  C_15
REMARK    4  A    between atoms: O_6  and  C_21
REMARK    5  A    between atoms: C_9  and  C_12
REMARK                            x       y       z     vdW  Elec       q    Type
REMARK                         _______ _______ _______ _____ _____    ______ ____
ROOT
ATOM      1  O   UNL     1      21.058  -1.204   5.899  0.00  0.00    +0.000 OA
ATOM      2  O   UNL     1      24.907  -2.464   5.455  0.00  0.00    +0.000 OA
ATOM      3  C   UNL     1      23.095  -1.234   4.581  0.00  0.00    +0.000 A 
ATOM      4  C   UNL     1      21.776  -0.838   4.791  0.00  0.00    +0.000 A 
ATOM      5  C   UNL     1      21.676  -1.992   6.858  0.00  0.00    +0.000 A 
ATOM      6  C   UNL     1      23.753  -2.081   5.587  0.00  0.00    +0.000 A 
ATOM      7  C   UNL     1      22.939  -2.448   6.772  0.00  0.00    +0.000 A 
ATOM      8  C   UNL     1      23.778  -0.830   3.430  0.00  0.00    +0.000 A 
ATOM      9  C   UNL     1      21.130  -0.036   3.850  0.00  0.00    +0.000 A 
ATOM     10  C   UNL     1      21.808   0.369   2.700  0.00  0.00    +0.000 A 
ATOM     11  C   UNL     1      23.130  -0.027   2.491  0.00  0.00    +0.000 A 
ENDROOT
BRANCH   5  12
ATOM     12  C   UNL     1      20.794  -2.312   7.994  0.00  0.00    +0.000 A 
ATOM     13  C   UNL     1      20.375  -1.301   8.859  0.00  0.00    +0.000 A 
ATOM     14  C   UNL     1      20.378  -3.627   8.205  0.00  0.00    +0.000 A 
ATOM     15  C   UNL     1      19.540  -1.605   9.935  0.00  0.00    +0.000 A 
ATOM     16  C   UNL     1      19.543  -3.931   9.280  0.00  0.00    +0.000 A 
ATOM     17  C   UNL     1      19.125  -2.919  10.146  0.00  0.00    +0.000 A 
BRANCH  17  18
ATOM     18  O   UNL     1      18.309  -3.215  11.195  0.00  0.00    +0.000 OA
ATOM     19  H   UNL     1      18.857  -3.401  11.976  0.00  0.00    +0.000 HD
ENDBRANCH  17  18
ENDBRANCH   5  12
BRANCH   7  20
ATOM     20  O   UNL     1      23.514  -3.258   7.727  0.00  0.00    +0.000 OA
ATOM     21  H   UNL     1      24.423  -3.479   7.469  0.00  0.00    +0.000 HD
ENDBRANCH   7  20
BRANCH   8  22
ATOM     22  O   UNL     1      25.068  -1.190   3.177  0.00  0.00    +0.000 OA
ATOM     23  H   UNL     1      25.253  -2.070   3.538  0.00  0.00    +0.000 HD
ENDBRANCH   8  22
BRANCH  10  24
ATOM     24  O   UNL     1      21.180   1.152   1.780  0.00  0.00    +0.000 OA
ATOM     25  H   UNL     1      20.605   1.784   2.243  0.00  0.00    +0.000 HD
ENDBRANCH  10  24
TORSDOF 5
ENDMDL
