MODEL        4
REMARK  Name = 5280343
REMARK  6 active torsions:
REMARK  status: ('A' for Active; 'I' for Inactive)
REMARK    1  A    between atoms: O_2  and  C_12
REMARK    2  A    between atoms: O_3  and  C_14
REMARK    3  A    between atoms: O_5  and  C_16
REMARK    4  A    between atoms: O_6  and  C_20
REMARK    5  A    between atoms: O_7  and  C_22
REMARK    6  A    between atoms: C_10  and  C_11
REMARK                            x       y       z     vdW  Elec       q    Type
REMARK                         _______ _______ _______ _____ _____    ______ ____
ROOT
ATOM      1  O   UNL     1      29.774  36.592  15.016  0.00  0.00    +0.000 OA
ATOM      2  O   UNL     1      31.079  39.540  12.522  0.00  0.00    +0.000 OA
ATOM      3  C   UNL     1      29.692  38.918  14.325  0.00  0.00    +0.000 A 
ATOM      4  C   UNL     1      29.286  37.866  15.144  0.00  0.00    +0.000 A 
ATOM      5  C   UNL     1      30.723  36.343  14.036  0.00  0.00    +0.000 A 
ATOM      6  C   UNL     1      31.193  37.266  13.177  0.00  0.00    +0.000 A 
ATOM      7  C   UNL     1      30.689  38.657  13.275  0.00  0.00    +0.000 A 
ATOM      8  C   UNL     1      29.157  40.196  14.502  0.00  0.00    +0.000 A 
ATOM      9  C   UNL     1      28.340  38.087  16.146  0.00  0.00    +0.000 A 
ATOM     10  C   UNL     1      27.804  39.363  16.326  0.00  0.00    +0.000 A 
ATOM     11  C   UNL     1      28.213  40.415  15.504  0.00  0.00    +0.000 A 
ENDROOT
BRANCH   5  12
ATOM     12  C   UNL     1      31.164  34.938  14.006  0.00  0.00    +0.000 A 
ATOM     13  C   UNL     1      32.513  34.625  14.167  0.00  0.00    +0.000 A 
ATOM     14  C   UNL     1      30.230  33.918  13.817  0.00  0.00    +0.000 A 
ATOM     15  C   UNL     1      32.930  33.294  14.139  0.00  0.00    +0.000 A 
ATOM     16  C   UNL     1      30.646  32.587  13.789  0.00  0.00    +0.000 A 
ATOM     17  C   UNL     1      31.996  32.275  13.950  0.00  0.00    +0.000 A 
BRANCH  15  18
ATOM     18  O   UNL     1      34.251  33.001  14.295  0.00  0.00    +0.000 OA
ATOM     19  H   UNL     1      34.376  32.038  14.295  0.00  0.00    +0.000 HD
ENDBRANCH  15  18
BRANCH  17  20
ATOM     20  O   UNL     1      32.390  30.971  13.923  0.00  0.00    +0.000 OA
ATOM     21  H   UNL     1      33.348  30.916  14.064  0.00  0.00    +0.000 HD
ENDBRANCH  17  20
ENDBRANCH   5  12
BRANCH   6  22
ATOM     22  O   UNL     1      32.113  36.979  12.192  0.00  0.00    +0.000 OA
ATOM     23  H   UNL     1      32.309  37.779  11.680  0.00  0.00    +0.000 HD
ENDBRANCH   6  22
BRANCH   8  24
ATOM     24  O   UNL     1      29.521  41.258  13.728  0.00  0.00    +0.000 OA
ATOM     25  H   UNL     1      29.533  41.008  12.792  0.00  0.00    +0.000 HD
ENDBRANCH   8  24
BRANCH  10  26
ATOM     26  O   UNL     1      26.882  39.581  17.302  0.00  0.00    +0.000 OA
ATOM     27  H   UNL     1      27.341  39.688  18.152  0.00  0.00    +0.000 HD
ENDBRANCH  10  26
TORSDOF 6
ENDMDL
