MODEL        4
REMARK  Name = 5280343
REMARK  6 active torsions:
REMARK  status: ('A' for Active; 'I' for Inactive)
REMARK    1  A    between atoms: O_2  and  C_12
REMARK    2  A    between atoms: O_3  and  C_14
REMARK    3  A    between atoms: O_5  and  C_16
REMARK    4  A    between atoms: O_6  and  C_20
REMARK    5  A    between atoms: O_7  and  C_22
REMARK    6  A    between atoms: C_10  and  C_11
REMARK                            x       y       z     vdW  Elec       q    Type
REMARK                         _______ _______ _______ _____ _____    ______ ____
ROOT
ATOM      1  O   UNL     1       8.040   6.182  93.714  0.00  0.00    +0.000 OA
ATOM      2  O   UNL     1      11.079   8.898  93.740  0.00  0.00    +0.000 OA
ATOM      3  C   UNL     1       8.892   8.341  94.425  0.00  0.00    +0.000 A 
ATOM      4  C   UNL     1       7.891   7.372  94.377  0.00  0.00    +0.000 A 
ATOM      5  C   UNL     1       9.243   5.927  93.074  0.00  0.00    +0.000 A 
ATOM      6  C   UNL     1      10.283   6.780  93.037  0.00  0.00    +0.000 A 
ATOM      7  C   UNL     1      10.166   8.082  93.737  0.00  0.00    +0.000 A 
ATOM      8  C   UNL     1       8.683   9.537  95.116  0.00  0.00    +0.000 A 
ATOM      9  C   UNL     1       6.673   7.594  95.019  0.00  0.00    +0.000 A 
ATOM     10  C   UNL     1       6.460   8.788  95.711  0.00  0.00    +0.000 A 
ATOM     11  C   UNL     1       7.464   9.757  95.758  0.00  0.00    +0.000 A 
ENDROOT
BRANCH   5  12
ATOM     12  C   UNL     1       9.271   4.616  92.402  0.00  0.00    +0.000 A 
ATOM     13  C   UNL     1       9.254   4.545  91.010  0.00  0.00    +0.000 A 
ATOM     14  C   UNL     1       9.314   3.445  93.160  0.00  0.00    +0.000 A 
ATOM     15  C   UNL     1       9.282   3.304  90.374  0.00  0.00    +0.000 A 
ATOM     16  C   UNL     1       9.340   2.204  92.524  0.00  0.00    +0.000 A 
ATOM     17  C   UNL     1       9.324   2.133  91.132  0.00  0.00    +0.000 A 
BRANCH  15  18
ATOM     18  O   UNL     1       9.264   3.246  89.013  0.00  0.00    +0.000 OA
ATOM     19  H   UNL     1       9.303   2.320  88.723  0.00  0.00    +0.000 HD
ENDBRANCH  15  18
BRANCH  17  20
ATOM     20  O   UNL     1       9.352   0.915  90.522  0.00  0.00    +0.000 OA
ATOM     21  H   UNL     1       9.593   1.021  89.588  0.00  0.00    +0.000 HD
ENDBRANCH  17  20
ENDBRANCH   5  12
BRANCH   6  22
ATOM     22  O   UNL     1      11.455   6.510  92.364  0.00  0.00    +0.000 OA
ATOM     23  H   UNL     1      12.029   7.291  92.375  0.00  0.00    +0.000 HD
ENDBRANCH   6  22
BRANCH   8  24
ATOM     24  O   UNL     1       9.627  10.516  95.193  0.00  0.00    +0.000 OA
ATOM     25  H   UNL     1      10.495  10.136  95.400  0.00  0.00    +0.000 HD
ENDBRANCH   8  24
BRANCH  10  26
ATOM     26  O   UNL     1       5.274   9.008  96.339  0.00  0.00    +0.000 OA
ATOM     27  H   UNL     1       4.611   8.387  95.989  0.00  0.00    +0.000 HD
ENDBRANCH  10  26
TORSDOF 6
ENDMDL
