MODEL        4
REMARK  Name = 5280343
REMARK  6 active torsions:
REMARK  status: ('A' for Active; 'I' for Inactive)
REMARK    1  A    between atoms: O_2  and  C_12
REMARK    2  A    between atoms: O_3  and  C_14
REMARK    3  A    between atoms: O_5  and  C_16
REMARK    4  A    between atoms: O_6  and  C_20
REMARK    5  A    between atoms: O_7  and  C_22
REMARK    6  A    between atoms: C_10  and  C_11
REMARK                            x       y       z     vdW  Elec       q    Type
REMARK                         _______ _______ _______ _____ _____    ______ ____
ROOT
ATOM      1  O   UNL     1       8.935   1.215  16.322  0.00  0.00    +0.000 OA
ATOM      2  O   UNL     1      10.240   4.961  15.388  0.00  0.00    +0.000 OA
ATOM      3  C   UNL     1       8.443   3.435  15.476  0.00  0.00    +0.000 A 
ATOM      4  C   UNL     1       8.060   2.139  15.814  0.00  0.00    +0.000 A 
ATOM      5  C   UNL     1      10.254   1.591  16.521  0.00  0.00    +0.000 A 
ATOM      6  C   UNL     1      10.753   2.806  16.229  0.00  0.00    +0.000 A 
ATOM      7  C   UNL     1       9.844   3.837  15.672  0.00  0.00    +0.000 A 
ATOM      8  C   UNL     1       7.507   4.335  14.960  0.00  0.00    +0.000 A 
ATOM      9  C   UNL     1       6.738   1.733  15.635  0.00  0.00    +0.000 A 
ATOM     10  C   UNL     1       5.799   2.629  15.120  0.00  0.00    +0.000 A 
ATOM     11  C   UNL     1       6.185   3.927  14.783  0.00  0.00    +0.000 A 
ENDROOT
BRANCH   5  12
ATOM     12  C   UNL     1      11.085   0.506  17.071  0.00  0.00    +0.000 A 
ATOM     13  C   UNL     1      10.566  -0.344  18.048  0.00  0.00    +0.000 A 
ATOM     14  C   UNL     1      12.391   0.328  16.614  0.00  0.00    +0.000 A 
ATOM     15  C   UNL     1      11.353  -1.372  18.568  0.00  0.00    +0.000 A 
ATOM     16  C   UNL     1      13.178  -0.700  17.134  0.00  0.00    +0.000 A 
ATOM     17  C   UNL     1      12.660  -1.549  18.112  0.00  0.00    +0.000 A 
BRANCH  15  18
ATOM     18  O   UNL     1      10.837  -2.194  19.523  0.00  0.00    +0.000 OA
ATOM     19  H   UNL     1      11.553  -2.698  19.944  0.00  0.00    +0.000 HD
ENDBRANCH  15  18
BRANCH  17  20
ATOM     20  O   UNL     1      13.437  -2.550  18.611  0.00  0.00    +0.000 OA
ATOM     21  H   UNL     1      13.050  -2.886  19.434  0.00  0.00    +0.000 HD
ENDBRANCH  17  20
ENDBRANCH   5  12
BRANCH   6  22
ATOM     22  O   UNL     1      12.078   3.138  16.408  0.00  0.00    +0.000 OA
ATOM     23  H   UNL     1      12.302   3.908  15.861  0.00  0.00    +0.000 HD
ENDBRANCH   6  22
BRANCH   8  24
ATOM     24  O   UNL     1       7.830   5.613  14.614  0.00  0.00    +0.000 OA
ATOM     25  H   UNL     1       8.373   6.025  15.303  0.00  0.00    +0.000 HD
ENDBRANCH   8  24
BRANCH  10  26
ATOM     26  O   UNL     1       4.509   2.236  14.945  0.00  0.00    +0.000 OA
ATOM     27  H   UNL     1       4.461   1.642  14.177  0.00  0.00    +0.000 HD
ENDBRANCH  10  26
TORSDOF 6
ENDMDL
