MODEL        4
REMARK  Name = 5280343
REMARK  6 active torsions:
REMARK  status: ('A' for Active; 'I' for Inactive)
REMARK    1  A    between atoms: O_2  and  C_12
REMARK    2  A    between atoms: O_3  and  C_14
REMARK    3  A    between atoms: O_5  and  C_16
REMARK    4  A    between atoms: O_6  and  C_20
REMARK    5  A    between atoms: O_7  and  C_22
REMARK    6  A    between atoms: C_10  and  C_11
REMARK                            x       y       z     vdW  Elec       q    Type
REMARK                         _______ _______ _______ _____ _____    ______ ____
ROOT
ATOM      1  O   UNL     1      21.097  -1.091   5.865  0.00  0.00    +0.000 OA
ATOM      2  O   UNL     1      24.910  -2.413   5.296  0.00  0.00    +0.000 OA
ATOM      3  C   UNL     1      23.100  -1.130   4.496  0.00  0.00    +0.000 A 
ATOM      4  C   UNL     1      21.795  -0.713   4.748  0.00  0.00    +0.000 A 
ATOM      5  C   UNL     1      21.723  -1.912   6.790  0.00  0.00    +0.000 A 
ATOM      6  C   UNL     1      22.975  -2.390   6.662  0.00  0.00    +0.000 A 
ATOM      7  C   UNL     1      23.766  -2.011   5.466  0.00  0.00    +0.000 A 
ATOM      8  C   UNL     1      23.762  -0.713   3.338  0.00  0.00    +0.000 A 
ATOM      9  C   UNL     1      21.140   0.121   3.841  0.00  0.00    +0.000 A 
ATOM     10  C   UNL     1      21.798   0.540   2.683  0.00  0.00    +0.000 A 
ATOM     11  C   UNL     1      23.107   0.122   2.433  0.00  0.00    +0.000 A 
ENDROOT
BRANCH   5  12
ATOM     12  C   UNL     1      20.864  -2.242   7.941  0.00  0.00    +0.000 A 
ATOM     13  C   UNL     1      20.352  -3.531   8.083  0.00  0.00    +0.000 A 
ATOM     14  C   UNL     1      20.565  -1.263   8.890  0.00  0.00    +0.000 A 
ATOM     15  C   UNL     1      19.540  -3.843   9.174  0.00  0.00    +0.000 A 
ATOM     16  C   UNL     1      19.752  -1.575   9.980  0.00  0.00    +0.000 A 
ATOM     17  C   UNL     1      19.239  -2.864  10.122  0.00  0.00    +0.000 A 
BRANCH  15  18
ATOM     18  O   UNL     1      19.043  -5.104   9.302  0.00  0.00    +0.000 OA
ATOM     19  H   UNL     1      18.078  -5.069   9.403  0.00  0.00    +0.000 HD
ENDBRANCH  15  18
BRANCH  17  20
ATOM     20  O   UNL     1      18.449  -3.157  11.192  0.00  0.00    +0.000 OA
ATOM     21  H   UNL     1      17.678  -3.669  10.900  0.00  0.00    +0.000 HD
ENDBRANCH  17  20
ENDBRANCH   5  12
BRANCH   6  22
ATOM     22  O   UNL     1      23.557  -3.231   7.585  0.00  0.00    +0.000 OA
ATOM     23  H   UNL     1      24.486  -3.386   7.349  0.00  0.00    +0.000 HD
ENDBRANCH   6  22
BRANCH   8  24
ATOM     24  O   UNL     1      25.038  -1.091   3.044  0.00  0.00    +0.000 OA
ATOM     25  H   UNL     1      25.253  -1.930   3.479  0.00  0.00    +0.000 HD
ENDBRANCH   8  24
BRANCH  10  26
ATOM     26  O   UNL     1      21.163   1.354   1.798  0.00  0.00    +0.000 OA
ATOM     27  H   UNL     1      20.548   1.930   2.283  0.00  0.00    +0.000 HD
ENDBRANCH  10  26
TORSDOF 6
ENDMDL
