MODEL        5
REMARK  Name = 5280863
REMARK  5 active torsions:
REMARK  status: ('A' for Active; 'I' for Inactive)
REMARK    1  A    between atoms: O_2  and  C_11
REMARK    2  A    between atoms: O_3  and  C_13
REMARK    3  A    between atoms: O_5  and  C_15
REMARK    4  A    between atoms: O_6  and  C_21
REMARK    5  A    between atoms: C_9  and  C_12
REMARK                            x       y       z     vdW  Elec       q    Type
REMARK                         _______ _______ _______ _____ _____    ______ ____
ROOT
ATOM      1  O   UNL     1      60.580  32.197  75.503  0.00  0.00    +0.000 OA
ATOM      2  O   UNL     1      57.396  34.740  75.577  0.00  0.00    +0.000 OA
ATOM      3  C   UNL     1      59.053  33.651  74.300  0.00  0.00    +0.000 A 
ATOM      4  C   UNL     1      60.136  32.776  74.343  0.00  0.00    +0.000 A 
ATOM      5  C   UNL     1      59.913  32.487  76.684  0.00  0.00    +0.000 A 
ATOM      6  C   UNL     1      58.350  33.973  75.551  0.00  0.00    +0.000 A 
ATOM      7  C   UNL     1      58.861  33.321  76.780  0.00  0.00    +0.000 A 
ATOM      8  C   UNL     1      58.646  34.212  73.087  0.00  0.00    +0.000 A 
ATOM      9  C   UNL     1      60.821  32.456  73.169  0.00  0.00    +0.000 A 
ATOM     10  C   UNL     1      60.418  33.013  71.957  0.00  0.00    +0.000 A 
ATOM     11  C   UNL     1      59.332  33.889  71.915  0.00  0.00    +0.000 A 
ENDROOT
BRANCH   5  12
ATOM     12  C   UNL     1      60.491  31.802  77.853  0.00  0.00    +0.000 A 
ATOM     13  C   UNL     1      59.965  30.581  78.277  0.00  0.00    +0.000 A 
ATOM     14  C   UNL     1      61.564  32.374  78.537  0.00  0.00    +0.000 A 
ATOM     15  C   UNL     1      60.512  29.932  79.384  0.00  0.00    +0.000 A 
ATOM     16  C   UNL     1      62.111  31.725  79.644  0.00  0.00    +0.000 A 
ATOM     17  C   UNL     1      61.585  30.504  80.067  0.00  0.00    +0.000 A 
BRANCH  17  18
ATOM     18  O   UNL     1      62.119  29.871  81.147  0.00  0.00    +0.000 OA
ATOM     19  H   UNL     1      63.003  29.541  80.913  0.00  0.00    +0.000 HD
ENDBRANCH  17  18
ENDBRANCH   5  12
BRANCH   7  20
ATOM     20  O   UNL     1      58.241  33.614  77.976  0.00  0.00    +0.000 OA
ATOM     21  H   UNL     1      57.540  34.270  77.832  0.00  0.00    +0.000 HD
ENDBRANCH   7  20
BRANCH   8  22
ATOM     22  O   UNL     1      57.594  35.072  72.991  0.00  0.00    +0.000 OA
ATOM     23  H   UNL     1      56.835  34.738  73.492  0.00  0.00    +0.000 HD
ENDBRANCH   8  22
BRANCH  10  24
ATOM     24  O   UNL     1      61.084  32.703  70.811  0.00  0.00    +0.000 OA
ATOM     25  H   UNL     1      62.024  32.570  71.018  0.00  0.00    +0.000 HD
ENDBRANCH  10  24
TORSDOF 5
ENDMDL
