MODEL        4
REMARK  Name = 5280343
REMARK  6 active torsions:
REMARK  status: ('A' for Active; 'I' for Inactive)
REMARK    1  A    between atoms: O_2  and  C_12
REMARK    2  A    between atoms: O_3  and  C_14
REMARK    3  A    between atoms: O_5  and  C_16
REMARK    4  A    between atoms: O_6  and  C_20
REMARK    5  A    between atoms: O_7  and  C_22
REMARK    6  A    between atoms: C_10  and  C_11
REMARK                            x       y       z     vdW  Elec       q    Type
REMARK                         _______ _______ _______ _____ _____    ______ ____
ROOT
ATOM      1  O   UNL     1      30.192  85.339  25.084  0.00  0.00    +0.000 OA
ATOM      2  O   UNL     1      26.759  85.013  22.912  0.00  0.00    +0.000 OA
ATOM      3  C   UNL     1      28.870  86.033  23.171  0.00  0.00    +0.000 A 
ATOM      4  C   UNL     1      30.019  86.099  23.957  0.00  0.00    +0.000 A 
ATOM      5  C   UNL     1      29.186  84.459  25.451  0.00  0.00    +0.000 A 
ATOM      6  C   UNL     1      28.027  84.306  24.784  0.00  0.00    +0.000 A 
ATOM      7  C   UNL     1      27.793  85.110  23.561  0.00  0.00    +0.000 A 
ATOM      8  C   UNL     1      28.749  86.833  22.032  0.00  0.00    +0.000 A 
ATOM      9  C   UNL     1      31.054  86.967  23.610  0.00  0.00    +0.000 A 
ATOM     10  C   UNL     1      30.936  87.768  22.472  0.00  0.00    +0.000 A 
ATOM     11  C   UNL     1      29.785  87.700  21.686  0.00  0.00    +0.000 A 
ENDROOT
BRANCH   5  12
ATOM     12  C   UNL     1      29.499  83.706  26.678  0.00  0.00    +0.000 A 
ATOM     13  C   UNL     1      29.347  82.320  26.704  0.00  0.00    +0.000 A 
ATOM     14  C   UNL     1      29.947  84.380  27.814  0.00  0.00    +0.000 A 
ATOM     15  C   UNL     1      29.645  81.607  27.865  0.00  0.00    +0.000 A 
ATOM     16  C   UNL     1      30.244  83.667  28.976  0.00  0.00    +0.000 A 
ATOM     17  C   UNL     1      30.093  82.281  29.002  0.00  0.00    +0.000 A 
BRANCH  15  18
ATOM     18  O   UNL     1      29.492  80.253  27.880  0.00  0.00    +0.000 OA
ATOM     19  H   UNL     1      29.496  79.932  28.796  0.00  0.00    +0.000 HD
ENDBRANCH  15  18
BRANCH  17  20
ATOM     20  O   UNL     1      30.388  81.595  30.142  0.00  0.00    +0.000 OA
ATOM     21  H   UNL     1      29.994  80.710  30.102  0.00  0.00    +0.000 HD
ENDBRANCH  17  20
ENDBRANCH   5  12
BRANCH   6  22
ATOM     22  O   UNL     1      27.032  83.444  25.193  0.00  0.00    +0.000 OA
ATOM     23  H   UNL     1      26.343  83.389  24.512  0.00  0.00    +0.000 HD
ENDBRANCH   6  22
BRANCH   8  24
ATOM     24  O   UNL     1      27.647  86.806  21.230  0.00  0.00    +0.000 OA
ATOM     25  H   UNL     1      26.838  86.836  21.762  0.00  0.00    +0.000 HD
ENDBRANCH   8  24
BRANCH  10  26
ATOM     26  O   UNL     1      31.943  88.616  22.131  0.00  0.00    +0.000 OA
ATOM     27  H   UNL     1      32.544  88.161  21.516  0.00  0.00    +0.000 HD
ENDBRANCH  10  26
TORSDOF 6
ENDMDL
