MODEL        5
REMARK  Name = 5280863
REMARK  5 active torsions:
REMARK  status: ('A' for Active; 'I' for Inactive)
REMARK    1  A    between atoms: O_2  and  C_11
REMARK    2  A    between atoms: O_3  and  C_13
REMARK    3  A    between atoms: O_5  and  C_15
REMARK    4  A    between atoms: O_6  and  C_21
REMARK    5  A    between atoms: C_9  and  C_12
REMARK                            x       y       z     vdW  Elec       q    Type
REMARK                         _______ _______ _______ _____ _____    ______ ____
ROOT
ATOM      1  O   UNL     1      29.668  36.498  15.036  0.00  0.00    +0.000 OA
ATOM      2  O   UNL     1      31.075  39.303  12.437  0.00  0.00    +0.000 OA
ATOM      3  C   UNL     1      29.667  38.797  14.259  0.00  0.00    +0.000 A 
ATOM      4  C   UNL     1      29.224  37.791  15.115  0.00  0.00    +0.000 A 
ATOM      5  C   UNL     1      30.608  36.179  14.068  0.00  0.00    +0.000 A 
ATOM      6  C   UNL     1      30.654  38.463  13.221  0.00  0.00    +0.000 A 
ATOM      7  C   UNL     1      31.110  37.053  13.176  0.00  0.00    +0.000 A 
ATOM      8  C   UNL     1      29.177  40.100  14.387  0.00  0.00    +0.000 A 
ATOM      9  C   UNL     1      28.286  38.082  16.107  0.00  0.00    +0.000 A 
ATOM     10  C   UNL     1      27.795  39.381  16.238  0.00  0.00    +0.000 A 
ATOM     11  C   UNL     1      28.240  40.388  15.380  0.00  0.00    +0.000 A 
ENDROOT
BRANCH   5  12
ATOM     12  C   UNL     1      30.999  34.759  14.091  0.00  0.00    +0.000 A 
ATOM     13  C   UNL     1      32.209  34.377  14.671  0.00  0.00    +0.000 A 
ATOM     14  C   UNL     1      30.158  33.795  13.534  0.00  0.00    +0.000 A 
ATOM     15  C   UNL     1      32.579  33.032  14.693  0.00  0.00    +0.000 A 
ATOM     16  C   UNL     1      30.528  32.450  13.556  0.00  0.00    +0.000 A 
ATOM     17  C   UNL     1      31.739  32.069  14.135  0.00  0.00    +0.000 A 
BRANCH  17  18
ATOM     18  O   UNL     1      32.099  30.756  14.157  0.00  0.00    +0.000 OA
ATOM     19  H   UNL     1      33.061  30.696  14.285  0.00  0.00    +0.000 HD
ENDBRANCH  17  18
ENDBRANCH   5  12
BRANCH   7  20
ATOM     20  O   UNL     1      32.020  36.697  12.203  0.00  0.00    +0.000 OA
ATOM     21  H   UNL     1      32.247  37.472  11.665  0.00  0.00    +0.000 HD
ENDBRANCH   7  20
BRANCH   8  22
ATOM     22  O   UNL     1      29.577  41.118  13.576  0.00  0.00    +0.000 OA
ATOM     23  H   UNL     1      29.903  40.772  12.731  0.00  0.00    +0.000 HD
ENDBRANCH   8  22
BRANCH  10  24
ATOM     24  O   UNL     1      26.880  39.668  17.205  0.00  0.00    +0.000 OA
ATOM     25  H   UNL     1      27.334  39.724  18.062  0.00  0.00    +0.000 HD
ENDBRANCH  10  24
TORSDOF 5
ENDMDL
