MODEL        5
REMARK  Name = 5280863
REMARK  5 active torsions:
REMARK  status: ('A' for Active; 'I' for Inactive)
REMARK    1  A    between atoms: O_2  and  C_11
REMARK    2  A    between atoms: O_3  and  C_13
REMARK    3  A    between atoms: O_5  and  C_15
REMARK    4  A    between atoms: O_6  and  C_21
REMARK    5  A    between atoms: C_9  and  C_12
REMARK                            x       y       z     vdW  Elec       q    Type
REMARK                         _______ _______ _______ _____ _____    ______ ____
ROOT
ATOM      1  O   UNL     1       8.064   6.187  93.409  0.00  0.00    +0.000 OA
ATOM      2  O   UNL     1      11.200   8.763  93.768  0.00  0.00    +0.000 OA
ATOM      3  C   UNL     1       8.974   8.235  94.339  0.00  0.00    +0.000 A 
ATOM      4  C   UNL     1       7.940   7.316  94.175  0.00  0.00    +0.000 A 
ATOM      5  C   UNL     1       9.276   5.943  92.781  0.00  0.00    +0.000 A 
ATOM      6  C   UNL     1      10.258   7.989  93.665  0.00  0.00    +0.000 A 
ATOM      7  C   UNL     1      10.348   6.753  92.852  0.00  0.00    +0.000 A 
ATOM      8  C   UNL     1       8.790   9.371  95.133  0.00  0.00    +0.000 A 
ATOM      9  C   UNL     1       6.712   7.528  94.803  0.00  0.00    +0.000 A 
ATOM     10  C   UNL     1       6.524   8.660  95.595  0.00  0.00    +0.000 A 
ATOM     11  C   UNL     1       7.561   9.580  95.760  0.00  0.00    +0.000 A 
ENDROOT
BRANCH   5  12
ATOM     12  C   UNL     1       9.274   4.699  91.991  0.00  0.00    +0.000 A 
ATOM     13  C   UNL     1       9.265   3.462  92.637  0.00  0.00    +0.000 A 
ATOM     14  C   UNL     1       9.279   4.758  90.598  0.00  0.00    +0.000 A 
ATOM     15  C   UNL     1       9.263   2.285  91.889  0.00  0.00    +0.000 A 
ATOM     16  C   UNL     1       9.276   3.580  89.850  0.00  0.00    +0.000 A 
ATOM     17  C   UNL     1       9.269   2.343  90.496  0.00  0.00    +0.000 A 
BRANCH  17  18
ATOM     18  O   UNL     1       9.266   1.194  89.766  0.00  0.00    +0.000 OA
ATOM     19  H   UNL     1       8.649   0.564  90.174  0.00  0.00    +0.000 HD
ENDBRANCH  17  18
ENDBRANCH   5  12
BRANCH   7  20
ATOM     20  O   UNL     1      11.529   6.498  92.187  0.00  0.00    +0.000 OA
ATOM     21  H   UNL     1      12.095   7.286  92.207  0.00  0.00    +0.000 HD
ENDBRANCH   7  20
BRANCH   8  22
ATOM     22  O   UNL     1       9.768  10.299  95.326  0.00  0.00    +0.000 OA
ATOM     23  H   UNL     1      10.614   9.867  95.519  0.00  0.00    +0.000 HD
ENDBRANCH   8  22
BRANCH  10  24
ATOM     24  O   UNL     1       5.327   8.870  96.209  0.00  0.00    +0.000 OA
ATOM     25  H   UNL     1       4.672   9.135  95.541  0.00  0.00    +0.000 HD
ENDBRANCH  10  24
TORSDOF 5
ENDMDL
