MODEL        5
REMARK  Name = 5280863
REMARK  5 active torsions:
REMARK  status: ('A' for Active; 'I' for Inactive)
REMARK    1  A    between atoms: O_2  and  C_11
REMARK    2  A    between atoms: O_3  and  C_13
REMARK    3  A    between atoms: O_5  and  C_15
REMARK    4  A    between atoms: O_6  and  C_21
REMARK    5  A    between atoms: C_9  and  C_12
REMARK                            x       y       z     vdW  Elec       q    Type
REMARK                         _______ _______ _______ _____ _____    ______ ____
ROOT
ATOM      1  O   UNL     1       8.994   1.179  16.288  0.00  0.00    +0.000 OA
ATOM      2  O   UNL     1      10.243   4.929  15.297  0.00  0.00    +0.000 OA
ATOM      3  C   UNL     1       8.461   3.391  15.443  0.00  0.00    +0.000 A 
ATOM      4  C   UNL     1       8.098   2.094  15.798  0.00  0.00    +0.000 A 
ATOM      5  C   UNL     1      10.315   1.566  16.448  0.00  0.00    +0.000 A 
ATOM      6  C   UNL     1       9.864   3.805  15.598  0.00  0.00    +0.000 A 
ATOM      7  C   UNL     1      10.795   2.784  16.135  0.00  0.00    +0.000 A 
ATOM      8  C   UNL     1       7.504   4.281  14.948  0.00  0.00    +0.000 A 
ATOM      9  C   UNL     1       6.773   1.676  15.659  0.00  0.00    +0.000 A 
ATOM     10  C   UNL     1       5.816   2.561  15.165  0.00  0.00    +0.000 A 
ATOM     11  C   UNL     1       6.180   3.861  14.811  0.00  0.00    +0.000 A 
ENDROOT
BRANCH   5  12
ATOM     12  C   UNL     1      11.169   0.490  16.980  0.00  0.00    +0.000 A 
ATOM     13  C   UNL     1      12.141   0.781  17.938  0.00  0.00    +0.000 A 
ATOM     14  C   UNL     1      11.005  -0.819  16.528  0.00  0.00    +0.000 A 
ATOM     15  C   UNL     1      12.950  -0.238  18.442  0.00  0.00    +0.000 A 
ATOM     16  C   UNL     1      11.814  -1.838  17.032  0.00  0.00    +0.000 A 
ATOM     17  C   UNL     1      12.787  -1.546  17.989  0.00  0.00    +0.000 A 
BRANCH  17  18
ATOM     18  O   UNL     1      13.575  -2.541  18.482  0.00  0.00    +0.000 OA
ATOM     19  H   UNL     1      13.616  -2.459  19.450  0.00  0.00    +0.000 HD
ENDBRANCH  17  18
ENDBRANCH   5  12
BRANCH   7  20
ATOM     20  O   UNL     1      12.123   3.127  16.275  0.00  0.00    +0.000 OA
ATOM     21  H   UNL     1      12.320   3.910  15.735  0.00  0.00    +0.000 HD
ENDBRANCH   7  20
BRANCH   8  22
ATOM     22  O   UNL     1       7.807   5.559  14.587  0.00  0.00    +0.000 OA
ATOM     23  H   UNL     1       8.366   5.979  15.258  0.00  0.00    +0.000 HD
ENDBRANCH   8  22
BRANCH  10  24
ATOM     24  O   UNL     1       4.523   2.157  15.028  0.00  0.00    +0.000 OA
ATOM     25  H   UNL     1       4.450   1.594  14.239  0.00  0.00    +0.000 HD
ENDBRANCH  10  24
TORSDOF 5
ENDMDL
