MODEL        4
REMARK  Name = 5280343
REMARK  6 active torsions:
REMARK  status: ('A' for Active; 'I' for Inactive)
REMARK    1  A    between atoms: O_2  and  C_12
REMARK    2  A    between atoms: O_3  and  C_14
REMARK    3  A    between atoms: O_5  and  C_16
REMARK    4  A    between atoms: O_6  and  C_20
REMARK    5  A    between atoms: O_7  and  C_22
REMARK    6  A    between atoms: C_10  and  C_11
REMARK                            x       y       z     vdW  Elec       q    Type
REMARK                         _______ _______ _______ _____ _____    ______ ____
ROOT
ATOM      1  O   UNL     1      60.515  32.109  75.561  0.00  0.00    +0.000 OA
ATOM      2  O   UNL     1      57.371  34.701  75.641  0.00  0.00    +0.000 OA
ATOM      3  C   UNL     1      59.032  33.615  74.367  0.00  0.00    +0.000 A 
ATOM      4  C   UNL     1      60.100  32.720  74.407  0.00  0.00    +0.000 A 
ATOM      5  C   UNL     1      59.834  32.383  76.737  0.00  0.00    +0.000 A 
ATOM      6  C   UNL     1      58.794  33.231  76.836  0.00  0.00    +0.000 A 
ATOM      7  C   UNL     1      58.313  33.920  75.614  0.00  0.00    +0.000 A 
ATOM      8  C   UNL     1      58.654  34.209  73.161  0.00  0.00    +0.000 A 
ATOM      9  C   UNL     1      60.800  32.417  73.239  0.00  0.00    +0.000 A 
ATOM     10  C   UNL     1      60.425  33.008  72.031  0.00  0.00    +0.000 A 
ATOM     11  C   UNL     1      59.354  33.903  71.994  0.00  0.00    +0.000 A 
ENDROOT
BRANCH   5  12
ATOM     12  C   UNL     1      60.380  31.662  77.899  0.00  0.00    +0.000 A 
ATOM     13  C   UNL     1      61.464  32.189  78.601  0.00  0.00    +0.000 A 
ATOM     14  C   UNL     1      59.813  30.451  78.298  0.00  0.00    +0.000 A 
ATOM     15  C   UNL     1      61.980  31.506  79.703  0.00  0.00    +0.000 A 
ATOM     16  C   UNL     1      60.330  29.768  79.399  0.00  0.00    +0.000 A 
ATOM     17  C   UNL     1      61.413  30.295  80.101  0.00  0.00    +0.000 A 
BRANCH  15  18
ATOM     18  O   UNL     1      63.040  32.029  80.380  0.00  0.00    +0.000 OA
ATOM     19  H   UNL     1      63.296  31.431  81.101  0.00  0.00    +0.000 HD
ENDBRANCH  15  18
BRANCH  17  20
ATOM     20  O   UNL     1      61.908  29.620  81.177  0.00  0.00    +0.000 OA
ATOM     21  H   UNL     1      62.807  29.928  81.372  0.00  0.00    +0.000 HD
ENDBRANCH  17  20
ENDBRANCH   5  12
BRANCH   6  22
ATOM     22  O   UNL     1      58.158  33.507  78.027  0.00  0.00    +0.000 OA
ATOM     23  H   UNL     1      57.459  34.164  77.883  0.00  0.00    +0.000 HD
ENDBRANCH   6  22
BRANCH   8  24
ATOM     24  O   UNL     1      57.618  35.089  73.068  0.00  0.00    +0.000 OA
ATOM     25  H   UNL     1      56.845  34.756  73.547  0.00  0.00    +0.000 HD
ENDBRANCH   8  24
BRANCH  10  26
ATOM     26  O   UNL     1      61.105  32.713  70.890  0.00  0.00    +0.000 OA
ATOM     27  H   UNL     1      62.015  32.458  71.121  0.00  0.00    +0.000 HD
ENDBRANCH  10  26
TORSDOF 6
ENDMDL
