MODEL        5
REMARK  Name = 5280863
REMARK  5 active torsions:
REMARK  status: ('A' for Active; 'I' for Inactive)
REMARK    1  A    between atoms: O_2  and  C_11
REMARK    2  A    between atoms: O_3  and  C_13
REMARK    3  A    between atoms: O_5  and  C_15
REMARK    4  A    between atoms: O_6  and  C_21
REMARK    5  A    between atoms: C_9  and  C_12
REMARK                            x       y       z     vdW  Elec       q    Type
REMARK                         _______ _______ _______ _____ _____    ______ ____
ROOT
ATOM      1  O   UNL     1      30.076  85.310  25.054  0.00  0.00    +0.000 OA
ATOM      2  O   UNL     1      26.692  85.028  22.802  0.00  0.00    +0.000 OA
ATOM      3  C   UNL     1      28.808  86.022  23.110  0.00  0.00    +0.000 A 
ATOM      4  C   UNL     1      29.938  86.073  23.924  0.00  0.00    +0.000 A 
ATOM      5  C   UNL     1      29.051  84.442  25.395  0.00  0.00    +0.000 A 
ATOM      6  C   UNL     1      27.711  85.112  23.474  0.00  0.00    +0.000 A 
ATOM      7  C   UNL     1      27.907  84.303  24.701  0.00  0.00    +0.000 A 
ATOM      8  C   UNL     1      28.723  86.824  21.970  0.00  0.00    +0.000 A 
ATOM      9  C   UNL     1      30.992  86.930  23.601  0.00  0.00    +0.000 A 
ATOM     10  C   UNL     1      30.910  87.732  22.464  0.00  0.00    +0.000 A 
ATOM     11  C   UNL     1      29.778  87.679  21.649  0.00  0.00    +0.000 A 
ENDROOT
BRANCH   5  12
ATOM     12  C   UNL     1      29.326  83.684  26.629  0.00  0.00    +0.000 A 
ATOM     13  C   UNL     1      28.938  82.348  26.728  0.00  0.00    +0.000 A 
ATOM     14  C   UNL     1      29.976  84.303  27.697  0.00  0.00    +0.000 A 
ATOM     15  C   UNL     1      29.199  81.631  27.896  0.00  0.00    +0.000 A 
ATOM     16  C   UNL     1      30.237  83.585  28.864  0.00  0.00    +0.000 A 
ATOM     17  C   UNL     1      29.847  82.249  28.964  0.00  0.00    +0.000 A 
BRANCH  17  18
ATOM     18  O   UNL     1      30.103  81.549  30.103  0.00  0.00    +0.000 OA
ATOM     19  H   UNL     1      29.496  80.791  30.149  0.00  0.00    +0.000 HD
ENDBRANCH  17  18
ENDBRANCH   5  12
BRANCH   7  20
ATOM     20  O   UNL     1      26.891  83.454  25.087  0.00  0.00    +0.000 OA
ATOM     21  H   UNL     1      26.238  83.376  24.373  0.00  0.00    +0.000 HD
ENDBRANCH   7  20
BRANCH   8  22
ATOM     22  O   UNL     1      27.640  86.812  21.142  0.00  0.00    +0.000 OA
ATOM     23  H   UNL     1      26.819  86.842  21.656  0.00  0.00    +0.000 HD
ENDBRANCH   8  22
BRANCH  10  24
ATOM     24  O   UNL     1      31.936  88.569  22.146  0.00  0.00    +0.000 OA
ATOM     25  H   UNL     1      32.511  88.131  21.496  0.00  0.00    +0.000 HD
ENDBRANCH  10  24
TORSDOF 5
ENDMDL
