MODEL        6
REMARK  Name = 5281426
REMARK  1 active torsions:
REMARK  status: ('A' for Active; 'I' for Inactive)
REMARK    1  A    between atoms: O_2  and  C_9
REMARK                            x       y       z     vdW  Elec       q    Type
REMARK                         _______ _______ _______ _____ _____    ______ ____
ROOT
ATOM      1  O   UNL     1      13.255  -0.830  17.878  0.00  0.00    +0.000 OA
ATOM      2  O   UNL     1      14.144  -2.854  18.478  0.00  0.00    +0.000 OA
ATOM      3  C   UNL     1      11.158  -0.780  16.643  0.00  0.00    +0.000 A 
ATOM      4  C   UNL     1      12.223  -0.111  17.242  0.00  0.00    +0.000 A 
ATOM      5  C   UNL     1      10.154  -0.031  16.024  0.00  0.00    +0.000 A 
ATOM      6  C   UNL     1      12.310   1.280  17.238  0.00  0.00    +0.000 A 
ATOM      7  C   UNL     1      11.130  -2.232  16.684  0.00  0.00    +0.000 A 
ATOM      8  C   UNL     1      11.305   2.018  16.619  0.00  0.00    +0.000 A 
ATOM      9  C   UNL     1      10.229   1.364  16.013  0.00  0.00    +0.000 A 
ATOM     10  C   UNL     1      12.112  -2.906  17.288  0.00  0.00    +0.000 A 
ATOM     11  C   UNL     1      13.249  -2.221  17.930  0.00  0.00    +0.000 A 
ENDROOT
BRANCH   8  12
ATOM     12  O   UNL     1      11.370   3.377  16.602  0.00  0.00    +0.000 OA
ATOM     13  H   UNL     1      11.355   3.705  17.517  0.00  0.00    +0.000 HD
ENDBRANCH   8  12
TORSDOF 1
ENDMDL
