MODEL        6
REMARK  Name = 5281426
REMARK  1 active torsions:
REMARK  status: ('A' for Active; 'I' for Inactive)
REMARK    1  A    between atoms: O_2  and  C_9
REMARK                            x       y       z     vdW  Elec       q    Type
REMARK                         _______ _______ _______ _____ _____    ______ ____
ROOT
ATOM      1  O   UNL     1      20.457  -0.240   5.517  0.00  0.00    +0.000 OA
ATOM      2  O   UNL     1      21.142   0.857   3.625  0.00  0.00    +0.000 OA
ATOM      3  C   UNL     1      21.885  -1.972   6.461  0.00  0.00    +0.000 A 
ATOM      4  C   UNL     1      20.713  -1.220   6.498  0.00  0.00    +0.000 A 
ATOM      5  C   UNL     1      22.101  -2.932   7.452  0.00  0.00    +0.000 A 
ATOM      6  C   UNL     1      19.756  -1.402   7.495  0.00  0.00    +0.000 A 
ATOM      7  C   UNL     1      22.839  -1.729   5.393  0.00  0.00    +0.000 A 
ATOM      8  C   UNL     1      19.981  -2.361   8.478  0.00  0.00    +0.000 A 
ATOM      9  C   UNL     1      21.151  -3.125   8.458  0.00  0.00    +0.000 A 
ATOM     10  C   UNL     1      22.589  -0.800   4.466  0.00  0.00    +0.000 A 
ATOM     11  C   UNL     1      21.357   0.009   4.485  0.00  0.00    +0.000 A 
ENDROOT
BRANCH   8  12
ATOM     12  O   UNL     1      19.060  -2.558   9.462  0.00  0.00    +0.000 OA
ATOM     13  H   UNL     1      18.493  -1.770   9.524  0.00  0.00    +0.000 HD
ENDBRANCH   8  12
TORSDOF 1
ENDMDL
