MODEL        6
REMARK  Name = 5281426
REMARK  1 active torsions:
REMARK  status: ('A' for Active; 'I' for Inactive)
REMARK    1  A    between atoms: O_2  and  C_9
REMARK                            x       y       z     vdW  Elec       q    Type
REMARK                         _______ _______ _______ _____ _____    ______ ____
ROOT
ATOM      1  O   UNL     1      28.555  38.261  17.515  0.00  0.00    +0.000 OA
ATOM      2  O   UNL     1      26.579  38.827  18.526  0.00  0.00    +0.000 OA
ATOM      3  C   UNL     1      28.697  38.314  15.085  0.00  0.00    +0.000 A 
ATOM      4  C   UNL     1      29.289  38.082  16.324  0.00  0.00    +0.000 A 
ATOM      5  C   UNL     1      29.458  38.126  13.929  0.00  0.00    +0.000 A 
ATOM      6  C   UNL     1      30.615  37.669  16.438  0.00  0.00    +0.000 A 
ATOM      7  C   UNL     1      27.310  38.743  15.040  0.00  0.00    +0.000 A 
ATOM      8  C   UNL     1      31.365  37.484  15.279  0.00  0.00    +0.000 A 
ATOM      9  C   UNL     1      30.789  37.712  14.027  0.00  0.00    +0.000 A 
ATOM     10  C   UNL     1      26.621  38.910  16.173  0.00  0.00    +0.000 A 
ATOM     11  C   UNL     1      27.225  38.671  17.496  0.00  0.00    +0.000 A 
ENDROOT
BRANCH   8  12
ATOM     12  O   UNL     1      32.663  37.080  15.366  0.00  0.00    +0.000 OA
ATOM     13  H   UNL     1      33.008  37.313  16.244  0.00  0.00    +0.000 HD
ENDBRANCH   8  12
TORSDOF 1
ENDMDL
