MODEL        6
REMARK  Name = 5281426
REMARK  1 active torsions:
REMARK  status: ('A' for Active; 'I' for Inactive)
REMARK    1  A    between atoms: O_2  and  C_9
REMARK                            x       y       z     vdW  Elec       q    Type
REMARK                         _______ _______ _______ _____ _____    ______ ____
ROOT
ATOM      1  O   UNL     1      28.883  81.576  27.221  0.00  0.00    +0.000 OA
ATOM      2  O   UNL     1      29.858  80.156  28.731  0.00  0.00    +0.000 OA
ATOM      3  C   UNL     1      29.681  83.871  27.070  0.00  0.00    +0.000 A 
ATOM      4  C   UNL     1      28.819  82.862  26.646  0.00  0.00    +0.000 A 
ATOM      5  C   UNL     1      29.588  85.131  26.475  0.00  0.00    +0.000 A 
ATOM      6  C   UNL     1      27.871  83.078  25.648  0.00  0.00    +0.000 A 
ATOM      7  C   UNL     1      30.645  83.575  28.116  0.00  0.00    +0.000 A 
ATOM      8  C   UNL     1      27.786  84.338  25.061  0.00  0.00    +0.000 A 
ATOM      9  C   UNL     1      28.641  85.363  25.473  0.00  0.00    +0.000 A 
ATOM     10  C   UNL     1      30.698  82.355  28.656  0.00  0.00    +0.000 A 
ATOM     11  C   UNL     1      29.798  81.271  28.224  0.00  0.00    +0.000 A 
ENDROOT
BRANCH   8  12
ATOM     12  O   UNL     1      26.866  84.573  24.085  0.00  0.00    +0.000 OA
ATOM     13  H   UNL     1      26.743  83.760  23.566  0.00  0.00    +0.000 HD
ENDBRANCH   8  12
TORSDOF 1
ENDMDL
