MODEL        6
REMARK  Name = 5281426
REMARK  1 active torsions:
REMARK  status: ('A' for Active; 'I' for Inactive)
REMARK    1  A    between atoms: O_2  and  C_9
REMARK                            x       y       z     vdW  Elec       q    Type
REMARK                         _______ _______ _______ _____ _____    ______ ____
ROOT
ATOM      1  O   UNL     1      60.874  31.965  75.427  0.00  0.00    +0.000 OA
ATOM      2  O   UNL     1      61.406  32.852  73.383  0.00  0.00    +0.000 OA
ATOM      3  C   UNL     1      58.708  32.479  76.412  0.00  0.00    +0.000 A 
ATOM      4  C   UNL     1      59.942  31.836  76.477  0.00  0.00    +0.000 A 
ATOM      5  C   UNL     1      57.811  32.326  77.472  0.00  0.00    +0.000 A 
ATOM      6  C   UNL     1      60.301  31.047  77.568  0.00  0.00    +0.000 A 
ATOM      7  C   UNL     1      58.399  33.286  75.244  0.00  0.00    +0.000 A 
ATOM      8  C   UNL     1      59.400  30.900  78.620  0.00  0.00    +0.000 A 
ATOM      9  C   UNL     1      58.158  31.538  78.572  0.00  0.00    +0.000 A 
ATOM     10  C   UNL     1      59.289  33.404  74.254  0.00  0.00    +0.000 A 
ATOM     11  C   UNL     1      60.600  32.732  74.300  0.00  0.00    +0.000 A 
ENDROOT
BRANCH   8  12
ATOM     12  O   UNL     1      59.729  30.135  79.697  0.00  0.00    +0.000 OA
ATOM     13  H   UNL     1      59.283  30.490  80.484  0.00  0.00    +0.000 HD
ENDBRANCH   8  12
TORSDOF 1
ENDMDL
