MODEL        6
REMARK  Name = 5281426
REMARK  1 active torsions:
REMARK  status: ('A' for Active; 'I' for Inactive)
REMARK    1  A    between atoms: O_2  and  C_9
REMARK                            x       y       z     vdW  Elec       q    Type
REMARK                         _______ _______ _______ _____ _____    ______ ____
ROOT
ATOM      1  O   UNL     1       8.654   9.432  95.640  0.00  0.00    +0.000 OA
ATOM      2  O   UNL     1       6.401   9.704  95.958  0.00  0.00    +0.000 OA
ATOM      3  C   UNL     1       9.430   7.794  94.015  0.00  0.00    +0.000 A 
ATOM      4  C   UNL     1       9.703   8.771  94.969  0.00  0.00    +0.000 A 
ATOM      5  C   UNL     1      10.497   7.162  93.371  0.00  0.00    +0.000 A 
ATOM      6  C   UNL     1      11.009   9.132  95.296  0.00  0.00    +0.000 A 
ATOM      7  C   UNL     1       8.044   7.468  93.723  0.00  0.00    +0.000 A 
ATOM      8  C   UNL     1      12.066   8.496  94.649  0.00  0.00    +0.000 A 
ATOM      9  C   UNL     1      11.811   7.514  93.689  0.00  0.00    +0.000 A 
ATOM     10  C   UNL     1       7.056   8.098  94.364  0.00  0.00    +0.000 A 
ATOM     11  C   UNL     1       7.320   9.136  95.377  0.00  0.00    +0.000 A 
ENDROOT
BRANCH   8  12
ATOM     12  O   UNL     1      13.350   8.831  94.953  0.00  0.00    +0.000 OA
ATOM     13  H   UNL     1      13.755   8.104  95.455  0.00  0.00    +0.000 HD
ENDBRANCH   8  12
TORSDOF 1
ENDMDL
