MODEL        2
REMARK  Name = 10466307
REMARK  6 active torsions:
REMARK  status: ('A' for Active; 'I' for Inactive)
REMARK    1  A    between atoms: O_2  and  C_9
REMARK    2  A    between atoms: O_3  and  C_11
REMARK    3  A    between atoms: O_4  and  C_15
REMARK    4  A    between atoms: O_4  and  C_16
REMARK    5  A    between atoms: C_8  and  C_13
REMARK    6  A    between atoms: C_12  and  C_15
REMARK                            x       y       z     vdW  Elec       q    Type
REMARK                         _______ _______ _______ _____ _____    ______ ____
ROOT
ATOM      1  O   UNL     1      27.796  40.214  17.105  0.00  0.00    +0.000 OA
ATOM      2  C   UNL     1      28.737  38.047  16.348  0.00  0.00    +0.000 C 
ATOM      3  C   UNL     1      28.126  38.240  14.938  0.00  0.00    +0.000 C 
ATOM      4  C   UNL     1      30.210  38.458  16.167  0.00  0.00    +0.000 C 
ATOM      5  C   UNL     1      30.553  37.826  14.816  0.00  0.00    +0.000 C 
ATOM      6  C   UNL     1      29.317  38.099  13.958  0.00  0.00    +0.000 C 
ATOM      7  C   UNL     1      27.980  38.830  17.427  0.00  0.00    +0.000 C 
ATOM      8  C   UNL     1      27.443  39.572  14.813  0.00  0.00    +0.000 C 
ATOM      9  C   UNL     1      31.111  37.998  17.306  0.00  0.00    +0.000 C 
ATOM     10  C   UNL     1      27.353  40.439  15.827  0.00  0.00    +0.000 C 
ENDROOT
BRANCH   5  11
ATOM     11  O   UNL     1      30.741  36.420  14.946  0.00  0.00    +0.000 OA
ATOM     12  H   UNL     1      30.696  36.207  15.894  0.00  0.00    +0.000 HD
ENDBRANCH   5  11
BRANCH   7  13
ATOM     13  O   UNL     1      26.722  38.185  17.653  0.00  0.00    +0.000 OA
ATOM     14  H   UNL     1      26.112  38.814  18.070  0.00  0.00    +0.000 HD
ENDBRANCH   7  13
BRANCH   8  16
ATOM     15  O   UNL     1      26.574  39.186  12.642  0.00  0.00    +0.000 OA
ATOM     16  C   UNL     1      26.849  39.971  13.536  0.00  0.00    +0.000 C 
BRANCH  16  17
ATOM     17  O   UNL     1      26.672  41.317  13.540  0.00  0.00    +0.000 OA
ATOM     18  C   UNL     1      27.833  42.090  13.216  0.00  0.00    +0.000 C 
ENDBRANCH  16  17
ENDBRANCH   8  16
TORSDOF 4
ENDMDL
