MODEL        2
REMARK  Name = 10466307
REMARK  6 active torsions:
REMARK  status: ('A' for Active; 'I' for Inactive)
REMARK    1  A    between atoms: O_2  and  C_9
REMARK    2  A    between atoms: O_3  and  C_11
REMARK    3  A    between atoms: O_4  and  C_15
REMARK    4  A    between atoms: O_4  and  C_16
REMARK    5  A    between atoms: C_8  and  C_13
REMARK    6  A    between atoms: C_12  and  C_15
REMARK                            x       y       z     vdW  Elec       q    Type
REMARK                         _______ _______ _______ _____ _____    ______ ____
ROOT
ATOM      1  O   UNL     1      30.573  85.729  27.896  0.00  0.00    +0.000 OA
ATOM      2  C   UNL     1      29.816  85.174  25.599  0.00  0.00    +0.000 C 
ATOM      3  C   UNL     1      29.539  83.707  26.012  0.00  0.00    +0.000 C 
ATOM      4  C   UNL     1      28.422  85.828  25.624  0.00  0.00    +0.000 C 
ATOM      5  C   UNL     1      27.548  84.742  24.993  0.00  0.00    +0.000 C 
ATOM      6  C   UNL     1      28.065  83.446  25.618  0.00  0.00    +0.000 C 
ATOM      7  C   UNL     1      30.859  85.849  26.496  0.00  0.00    +0.000 C 
ATOM      8  C   UNL     1      29.780  83.495  27.480  0.00  0.00    +0.000 C 
ATOM      9  C   UNL     1      28.367  87.163  24.892  0.00  0.00    +0.000 C 
ATOM     10  C   UNL     1      30.221  84.464  28.290  0.00  0.00    +0.000 C 
ENDROOT
BRANCH   5  11
ATOM     11  O   UNL     1      27.734  84.698  23.582  0.00  0.00    +0.000 OA
ATOM     12  H   UNL     1      27.569  83.783  23.295  0.00  0.00    +0.000 HD
ENDBRANCH   5  11
BRANCH   7  13
ATOM     13  O   UNL     1      32.144  85.298  26.187  0.00  0.00    +0.000 OA
ATOM     14  H   UNL     1      32.829  85.814  26.642  0.00  0.00    +0.000 HD
ENDBRANCH   7  13
BRANCH   8  16
ATOM     15  O   UNL     1      28.900  81.295  27.521  0.00  0.00    +0.000 OA
ATOM     16  C   UNL     1      29.520  82.186  28.082  0.00  0.00    +0.000 C 
BRANCH  16  17
ATOM     17  O   UNL     1      30.076  82.158  29.320  0.00  0.00    +0.000 OA
ATOM     18  C   UNL     1      31.379  81.569  29.393  0.00  0.00    +0.000 C 
ENDBRANCH  16  17
ENDBRANCH   8  16
TORSDOF 4
ENDMDL
