MODEL        2
REMARK  Name = 10466307
REMARK  6 active torsions:
REMARK  status: ('A' for Active; 'I' for Inactive)
REMARK    1  A    between atoms: O_2  and  C_9
REMARK    2  A    between atoms: O_3  and  C_11
REMARK    3  A    between atoms: O_4  and  C_15
REMARK    4  A    between atoms: O_4  and  C_16
REMARK    5  A    between atoms: C_8  and  C_13
REMARK    6  A    between atoms: C_12  and  C_15
REMARK                            x       y       z     vdW  Elec       q    Type
REMARK                         _______ _______ _______ _____ _____    ______ ____
ROOT
ATOM      1  O   UNL     1      22.606  -2.845   6.406  0.00  0.00    +0.000 OA
ATOM      2  C   UNL     1      22.074  -1.978   8.670  0.00  0.00    +0.000 C 
ATOM      3  C   UNL     1      20.925  -1.110   8.100  0.00  0.00    +0.000 C 
ATOM      4  C   UNL     1      21.349  -3.207   9.249  0.00  0.00    +0.000 C 
ATOM      5  C   UNL     1      20.129  -2.571   9.919  0.00  0.00    +0.000 C 
ATOM      6  C   UNL     1      19.672  -1.510   8.916  0.00  0.00    +0.000 C 
ATOM      7  C   UNL     1      23.143  -2.299   7.619  0.00  0.00    +0.000 C 
ATOM      8  C   UNL     1      20.741  -1.341   6.627  0.00  0.00    +0.000 C 
ATOM      9  C   UNL     1      22.213  -4.026  10.200  0.00  0.00    +0.000 C 
ATOM     10  C   UNL     1      21.519  -2.166   5.919  0.00  0.00    +0.000 C 
ENDROOT
BRANCH   5  11
ATOM     11  O   UNL     1      20.491  -1.943  11.144  0.00  0.00    +0.000 OA
ATOM     12  H   UNL     1      20.403  -2.608  11.849  0.00  0.00    +0.000 HD
ENDBRANCH   5  11
BRANCH   7  13
ATOM     13  O   UNL     1      23.890  -1.107   7.357  0.00  0.00    +0.000 OA
ATOM     14  H   UNL     1      24.661  -1.328   6.810  0.00  0.00    +0.000 HD
ENDBRANCH   7  13
BRANCH   8  16
ATOM     15  O   UNL     1      18.506  -1.040   5.899  0.00  0.00    +0.000 OA
ATOM     16  C   UNL     1      19.665  -0.655   5.909  0.00  0.00    +0.000 C 
BRANCH  16  17
ATOM     17  O   UNL     1      20.181   0.437   5.291  0.00  0.00    +0.000 OA
ATOM     18  C   UNL     1      20.947   0.169   4.111  0.00  0.00    +0.000 C 
ENDBRANCH  16  17
ENDBRANCH   8  16
TORSDOF 4
ENDMDL
