MODEL        2
REMARK  Name = 10466307
REMARK  6 active torsions:
REMARK  status: ('A' for Active; 'I' for Inactive)
REMARK    1  A    between atoms: O_2  and  C_9
REMARK    2  A    between atoms: O_3  and  C_11
REMARK    3  A    between atoms: O_4  and  C_15
REMARK    4  A    between atoms: O_4  and  C_16
REMARK    5  A    between atoms: C_8  and  C_13
REMARK    6  A    between atoms: C_12  and  C_15
REMARK                            x       y       z     vdW  Elec       q    Type
REMARK                         _______ _______ _______ _____ _____    ______ ____
ROOT
ATOM      1  O   UNL     1      10.675  -3.457  17.540  0.00  0.00    +0.000 OA
ATOM      2  C   UNL     1      11.151  -1.097  18.139  0.00  0.00    +0.000 C 
ATOM      3  C   UNL     1      12.676  -1.365  18.107  0.00  0.00    +0.000 C 
ATOM      4  C   UNL     1      10.871  -0.428  16.781  0.00  0.00    +0.000 C 
ATOM      5  C   UNL     1      12.066   0.518  16.638  0.00  0.00    +0.000 C 
ATOM      6  C   UNL     1      13.252  -0.315  17.126  0.00  0.00    +0.000 C 
ATOM      7  C   UNL     1      10.338  -2.368  18.409  0.00  0.00    +0.000 C 
ATOM      8  C   UNL     1      12.977  -2.772  17.673  0.00  0.00    +0.000 C 
ATOM      9  C   UNL     1       9.521   0.276  16.720  0.00  0.00    +0.000 C 
ATOM     10  C   UNL     1      12.022  -3.667  17.400  0.00  0.00    +0.000 C 
ENDROOT
BRANCH   5  11
ATOM     11  O   UNL     1      11.911   1.661  17.472  0.00  0.00    +0.000 OA
ATOM     12  H   UNL     1      12.794   2.048  17.603  0.00  0.00    +0.000 HD
ENDBRANCH   5  11
BRANCH   7  13
ATOM     13  O   UNL     1      10.515  -2.733  19.781  0.00  0.00    +0.000 OA
ATOM     14  H   UNL     1      11.377  -2.410  20.088  0.00  0.00    +0.000 HD
ENDBRANCH   7  13
BRANCH   8  16
ATOM     15  O   UNL     1      15.059  -3.593  18.454  0.00  0.00    +0.000 OA
ATOM     16  C   UNL     1      14.367  -3.208  17.524  0.00  0.00    +0.000 C 
BRANCH  16  17
ATOM     17  O   UNL     1      14.716  -3.108  16.216  0.00  0.00    +0.000 OA
ATOM     18  C   UNL     1      14.654  -4.329  15.469  0.00  0.00    +0.000 C 
ENDBRANCH  16  17
ENDBRANCH   8  16
TORSDOF 4
ENDMDL
