MODEL        2
REMARK  Name = 10466307
REMARK  6 active torsions:
REMARK  status: ('A' for Active; 'I' for Inactive)
REMARK    1  A    between atoms: O_2  and  C_9
REMARK    2  A    between atoms: O_3  and  C_11
REMARK    3  A    between atoms: O_4  and  C_15
REMARK    4  A    between atoms: O_4  and  C_16
REMARK    5  A    between atoms: C_8  and  C_13
REMARK    6  A    between atoms: C_12  and  C_15
REMARK                            x       y       z     vdW  Elec       q    Type
REMARK                         _______ _______ _______ _____ _____    ______ ____
ROOT
ATOM      1  O   UNL     1       8.057   6.150  94.043  0.00  0.00    +0.000 OA
ATOM      2  C   UNL     1       9.661   8.001  93.649  0.00  0.00    +0.000 C 
ATOM      3  C   UNL     1       8.744   8.996  94.402  0.00  0.00    +0.000 C 
ATOM      4  C   UNL     1      10.735   7.634  94.690  0.00  0.00    +0.000 C 
ATOM      5  C   UNL     1      11.024   8.989  95.341  0.00  0.00    +0.000 C 
ATOM      6  C   UNL     1       9.641   9.623  95.498  0.00  0.00    +0.000 C 
ATOM      7  C   UNL     1       8.886   6.808  93.077  0.00  0.00    +0.000 C 
ATOM      8  C   UNL     1       7.542   8.306  94.980  0.00  0.00    +0.000 C 
ATOM      9  C   UNL     1      11.964   6.970  94.084  0.00  0.00    +0.000 C 
ATOM     10  C   UNL     1       7.301   7.001  94.807  0.00  0.00    +0.000 C 
ENDROOT
BRANCH   5  11
ATOM     11  O   UNL     1      11.826   9.800  94.489  0.00  0.00    +0.000 OA
ATOM     12  H   UNL     1      11.650  10.729  94.720  0.00  0.00    +0.000 HD
ENDBRANCH   5  11
BRANCH   7  13
ATOM     13  O   UNL     1       8.113   7.265  91.963  0.00  0.00    +0.000 OA
ATOM     14  H   UNL     1       8.617   7.940  91.482  0.00  0.00    +0.000 HD
ENDBRANCH   7  13
BRANCH   8  16
ATOM     15  O   UNL     1       6.567  10.283  95.849  0.00  0.00    +0.000 OA
ATOM     16  C   UNL     1       6.578   9.064  95.780  0.00  0.00    +0.000 C 
BRANCH  16  17
ATOM     17  O   UNL     1       5.742   8.191  96.397  0.00  0.00    +0.000 OA
ATOM     18  C   UNL     1       4.520   8.754  96.887  0.00  0.00    +0.000 C 
ENDBRANCH  16  17
ENDBRANCH   8  16
TORSDOF 4
ENDMDL
