MODEL        2
REMARK  Name = 10466307
REMARK  6 active torsions:
REMARK  status: ('A' for Active; 'I' for Inactive)
REMARK    1  A    between atoms: O_2  and  C_9
REMARK    2  A    between atoms: O_3  and  C_11
REMARK    3  A    between atoms: O_4  and  C_15
REMARK    4  A    between atoms: O_4  and  C_16
REMARK    5  A    between atoms: C_8  and  C_13
REMARK    6  A    between atoms: C_12  and  C_15
REMARK                            x       y       z     vdW  Elec       q    Type
REMARK                         _______ _______ _______ _____ _____    ______ ____
ROOT
ATOM      1  O   UNL     1      56.912  33.766  76.217  0.00  0.00    +0.000 OA
ATOM      2  C   UNL     1      59.324  33.802  75.638  0.00  0.00    +0.000 C 
ATOM      3  C   UNL     1      59.631  32.740  76.723  0.00  0.00    +0.000 C 
ATOM      4  C   UNL     1      59.286  32.987  74.332  0.00  0.00    +0.000 C 
ATOM      5  C   UNL     1      60.469  32.034  74.515  0.00  0.00    +0.000 C 
ATOM      6  C   UNL     1      60.367  31.600  75.978  0.00  0.00    +0.000 C 
ATOM      7  C   UNL     1      58.048  34.595  75.939  0.00  0.00    +0.000 C 
ATOM      8  C   UNL     1      58.375  32.260  77.393  0.00  0.00    +0.000 C 
ATOM      9  C   UNL     1      59.379  33.848  73.079  0.00  0.00    +0.000 C 
ATOM     10  C   UNL     1      57.164  32.745  77.097  0.00  0.00    +0.000 C 
ENDROOT
BRANCH   5  11
ATOM     11  O   UNL     1      61.704  32.711  74.304  0.00  0.00    +0.000 OA
ATOM     12  H   UNL     1      62.101  32.347  73.494  0.00  0.00    +0.000 HD
ENDBRANCH   5  11
BRANCH   7  13
ATOM     13  O   UNL     1      58.314  35.481  77.030  0.00  0.00    +0.000 OA
ATOM     14  H   UNL     1      59.268  35.658  77.071  0.00  0.00    +0.000 HD
ENDBRANCH   7  13
BRANCH   8  16
ATOM     15  O   UNL     1      57.483  30.837  79.064  0.00  0.00    +0.000 OA
ATOM     16  C   UNL     1      58.445  31.211  78.412  0.00  0.00    +0.000 C 
BRANCH  16  17
ATOM     17  O   UNL     1      59.723  30.759  78.484  0.00  0.00    +0.000 OA
ATOM     18  C   UNL     1      60.415  31.066  79.700  0.00  0.00    +0.000 C 
ENDBRANCH  16  17
ENDBRANCH   8  16
TORSDOF 4
ENDMDL
