MODEL        3
REMARK  Name = 161313
REMARK  3 active torsions:
REMARK  status: ('A' for Active; 'I' for Inactive)
REMARK    1  A    between atoms: N_1  and  C_10
REMARK    2  A    between atoms: C_4  and  C_9
REMARK    3  A    between atoms: C_14  and  C_15
REMARK                            x       y       z     vdW  Elec       q    Type
REMARK                         _______ _______ _______ _____ _____    ______ ____
ROOT
ATOM      1  N   UNL     1      22.020  -2.410   7.034  0.00  0.00    +0.000 NA
ATOM      2  C   UNL     1      21.806  -1.344   4.888  0.00  0.00    +0.000 A 
ATOM      3  C   UNL     1      20.587  -0.801   5.254  0.00  0.00    +0.000 A 
ATOM      4  C   UNL     1      22.482  -2.132   5.795  0.00  0.00    +0.000 A 
ATOM      5  C   UNL     1      20.078  -1.064   6.522  0.00  0.00    +0.000 A 
ATOM      6  C   UNL     1      20.827  -1.867   7.367  0.00  0.00    +0.000 A 
ENDROOT
BRANCH   2   8
ATOM      7  N   UNL     1      22.568   0.376   3.220  0.00  0.00    +0.000 NA
ATOM      8  C   UNL     1      22.392  -1.073   3.502  0.00  0.00    +0.000 C 
ATOM      9  C   UNL     1      23.728  -1.842   3.372  0.00  0.00    +0.000 C 
ATOM     10  C   UNL     1      24.393  -1.604   2.023  0.00  0.00    +0.000 C 
ATOM     11  C   UNL     1      24.542  -0.111   1.776  0.00  0.00    +0.000 C 
ATOM     12  C   UNL     1      23.195   0.596   1.904  0.00  0.00    +0.000 C 
ATOM     13  C   UNL     1      21.292   1.102   3.258  0.00  0.00    +0.000 C 
ENDBRANCH   2   8
BRANCH   6  15
ATOM     14  N   UNL     1      18.808  -3.379  10.111  0.00  0.00    +0.000 NA
ATOM     15  C   UNL     1      20.362  -2.182   8.697  0.00  0.00    +0.000 A 
ATOM     16  C   UNL     1      20.971  -1.631   9.818  0.00  0.00    +0.000 A 
ATOM     17  C   UNL     1      19.294  -3.042   8.895  0.00  0.00    +0.000 A 
ATOM     18  C   UNL     1      20.500  -1.954  11.087  0.00  0.00    +0.000 A 
ATOM     19  C   UNL     1      19.426  -2.824  11.179  0.00  0.00    +0.000 A 
ENDBRANCH   6  15
TORSDOF 2
ENDMDL
