MODEL        3
REMARK  Name = 161313
REMARK  3 active torsions:
REMARK  status: ('A' for Active; 'I' for Inactive)
REMARK    1  A    between atoms: N_1  and  C_10
REMARK    2  A    between atoms: C_4  and  C_9
REMARK    3  A    between atoms: C_14  and  C_15
REMARK                            x       y       z     vdW  Elec       q    Type
REMARK                         _______ _______ _______ _____ _____    ______ ____
ROOT
ATOM      1  N   UNL     1       6.618   5.665  93.790  0.00  0.00    +0.000 NA
ATOM      2  C   UNL     1       7.959   4.193  92.439  0.00  0.00    +0.000 A 
ATOM      3  C   UNL     1       9.037   5.055  92.530  0.00  0.00    +0.000 A 
ATOM      4  C   UNL     1       6.782   4.530  93.074  0.00  0.00    +0.000 A 
ATOM      5  C   UNL     1       8.907   6.233  93.259  0.00  0.00    +0.000 A 
ATOM      6  C   UNL     1       7.688   6.488  93.864  0.00  0.00    +0.000 A 
ENDROOT
BRANCH   2   8
ATOM      7  N   UNL     1       9.149   2.926  90.623  0.00  0.00    +0.000 NA
ATOM      8  C   UNL     1       8.070   2.891  91.645  0.00  0.00    +0.000 C 
ATOM      9  C   UNL     1       8.269   1.722  92.639  0.00  0.00    +0.000 C 
ATOM     10  C   UNL     1       8.416   0.386  91.925  0.00  0.00    +0.000 C 
ATOM     11  C   UNL     1       9.522   0.474  90.884  0.00  0.00    +0.000 C 
ATOM     12  C   UNL     1       9.271   1.633  89.923  0.00  0.00    +0.000 C 
ATOM     13  C   UNL     1       8.926   3.979  89.624  0.00  0.00    +0.000 C 
ENDBRANCH   2   8
BRANCH   6  15
ATOM     14  N   UNL     1       6.085   8.952  96.157  0.00  0.00    +0.000 NA
ATOM     15  C   UNL     1       7.480   7.691  94.637  0.00  0.00    +0.000 A 
ATOM     16  C   UNL     1       8.413   8.720  94.626  0.00  0.00    +0.000 A 
ATOM     17  C   UNL     1       6.343   7.854  95.412  0.00  0.00    +0.000 A 
ATOM     18  C   UNL     1       8.184   9.867  95.381  0.00  0.00    +0.000 A 
ATOM     19  C   UNL     1       7.017   9.933  96.122  0.00  0.00    +0.000 A 
ENDBRANCH   6  15
TORSDOF 2
ENDMDL
