MODEL        3
REMARK  Name = 161313
REMARK  3 active torsions:
REMARK  status: ('A' for Active; 'I' for Inactive)
REMARK    1  A    between atoms: N_1  and  C_10
REMARK    2  A    between atoms: C_4  and  C_9
REMARK    3  A    between atoms: C_14  and  C_15
REMARK                            x       y       z     vdW  Elec       q    Type
REMARK                         _______ _______ _______ _____ _____    ______ ____
ROOT
ATOM      1  N   UNL     1      10.916  -0.550  15.835  0.00  0.00    +0.000 NA
ATOM      2  C   UNL     1      10.264   1.701  16.379  0.00  0.00    +0.000 A 
ATOM      3  C   UNL     1      11.011   1.660  17.543  0.00  0.00    +0.000 A 
ATOM      4  C   UNL     1      10.243   0.590  15.563  0.00  0.00    +0.000 A 
ATOM      5  C   UNL     1      11.718   0.504  17.858  0.00  0.00    +0.000 A 
ATOM      6  C   UNL     1      11.638  -0.563  16.978  0.00  0.00    +0.000 A 
ENDROOT
BRANCH   2   8
ATOM      7  N   UNL     1       8.073   2.927  16.497  0.00  0.00    +0.000 NA
ATOM      8  C   UNL     1       9.475   2.957  16.006  0.00  0.00    +0.000 C 
ATOM      9  C   UNL     1      10.235   4.195  16.539  0.00  0.00    +0.000 C 
ATOM     10  C   UNL     1       9.500   5.492  16.231  0.00  0.00    +0.000 C 
ATOM     11  C   UNL     1       8.070   5.409  16.741  0.00  0.00    +0.000 C 
ATOM     12  C   UNL     1       7.363   4.180  16.176  0.00  0.00    +0.000 C 
ATOM     13  C   UNL     1       7.316   1.803  15.930  0.00  0.00    +0.000 C 
ENDBRANCH   2   8
BRANCH   6  15
ATOM     14  N   UNL     1      14.116  -2.948  18.414  0.00  0.00    +0.000 NA
ATOM     15  C   UNL     1      12.346  -1.795  17.239  0.00  0.00    +0.000 A 
ATOM     16  C   UNL     1      11.981  -2.979  16.610  0.00  0.00    +0.000 A 
ATOM     17  C   UNL     1      13.411  -1.832  18.125  0.00  0.00    +0.000 A 
ATOM     18  C   UNL     1      12.683  -4.149  16.881  0.00  0.00    +0.000 A 
ATOM     19  C   UNL     1      13.732  -4.081  17.782  0.00  0.00    +0.000 A 
ENDBRANCH   6  15
TORSDOF 2
ENDMDL
