MODEL        3
REMARK  Name = 161313
REMARK  3 active torsions:
REMARK  status: ('A' for Active; 'I' for Inactive)
REMARK    1  A    between atoms: N_1  and  C_10
REMARK    2  A    between atoms: C_4  and  C_9
REMARK    3  A    between atoms: C_14  and  C_15
REMARK                            x       y       z     vdW  Elec       q    Type
REMARK                         _______ _______ _______ _____ _____    ______ ____
ROOT
ATOM      1  N   UNL     1      59.630  30.449  76.516  0.00  0.00    +0.000 NA
ATOM      2  C   UNL     1      59.695  32.291  74.968  0.00  0.00    +0.000 A 
ATOM      3  C   UNL     1      60.443  33.041  75.858  0.00  0.00    +0.000 A 
ATOM      4  C   UNL     1      59.313  31.016  75.330  0.00  0.00    +0.000 A 
ATOM      5  C   UNL     1      60.789  32.492  77.088  0.00  0.00    +0.000 A 
ATOM      6  C   UNL     1      60.362  31.204  77.366  0.00  0.00    +0.000 A 
ENDROOT
BRANCH   2   8
ATOM      7  N   UNL     1      58.674  34.211  73.708  0.00  0.00    +0.000 NA
ATOM      8  C   UNL     1      59.298  32.866  73.608  0.00  0.00    +0.000 C 
ATOM      9  C   UNL     1      60.549  32.889  72.698  0.00  0.00    +0.000 C 
ATOM     10  C   UNL     1      60.245  33.475  71.326  0.00  0.00    +0.000 C 
ATOM     11  C   UNL     1      59.598  34.844  71.480  0.00  0.00    +0.000 C 
ATOM     12  C   UNL     1      58.365  34.762  72.376  0.00  0.00    +0.000 C 
ATOM     13  C   UNL     1      57.438  34.185  74.501  0.00  0.00    +0.000 C 
ENDBRANCH   2   8
BRANCH   6  15
ATOM     14  N   UNL     1      62.021  30.540  80.637  0.00  0.00    +0.000 NA
ATOM     15  C   UNL     1      60.684  30.569  78.623  0.00  0.00    +0.000 A 
ATOM     16  C   UNL     1      60.018  29.423  79.039  0.00  0.00    +0.000 A 
ATOM     17  C   UNL     1      61.669  31.084  79.450  0.00  0.00    +0.000 A 
ATOM     18  C   UNL     1      60.352  28.834  80.254  0.00  0.00    +0.000 A 
ATOM     19  C   UNL     1      61.350  29.426  81.009  0.00  0.00    +0.000 A 
ENDBRANCH   6  15
TORSDOF 2
ENDMDL
