MODEL        3
REMARK  Name = 161313
REMARK  3 active torsions:
REMARK  status: ('A' for Active; 'I' for Inactive)
REMARK    1  A    between atoms: N_1  and  C_10
REMARK    2  A    between atoms: C_4  and  C_9
REMARK    3  A    between atoms: C_14  and  C_15
REMARK                            x       y       z     vdW  Elec       q    Type
REMARK                         _______ _______ _______ _____ _____    ______ ____
ROOT
ATOM      1  N   UNL     1      31.081  37.958  16.230  0.00  0.00    +0.000 NA
ATOM      2  C   UNL     1      32.238  36.486  14.719  0.00  0.00    +0.000 A 
ATOM      3  C   UNL     1      31.082  36.296  13.983  0.00  0.00    +0.000 A 
ATOM      4  C   UNL     1      32.197  37.313  15.821  0.00  0.00    +0.000 A 
ATOM      5  C   UNL     1      29.914  36.943  14.372  0.00  0.00    +0.000 A 
ATOM      6  C   UNL     1      29.966  37.756  15.493  0.00  0.00    +0.000 A 
ENDROOT
BRANCH   2   8
ATOM      7  N   UNL     1      34.729  36.672  14.433  0.00  0.00    +0.000 NA
ATOM      8  C   UNL     1      33.539  35.788  14.317  0.00  0.00    +0.000 C 
ATOM      9  C   UNL     1      33.698  34.509  15.172  0.00  0.00    +0.000 C 
ATOM     10  C   UNL     1      34.987  33.766  14.851  0.00  0.00    +0.000 C 
ATOM     11  C   UNL     1      36.173  34.711  14.973  0.00  0.00    +0.000 C 
ATOM     12  C   UNL     1      35.971  35.948  14.102  0.00  0.00    +0.000 C 
ATOM     13  C   UNL     1      34.626  37.849  13.561  0.00  0.00    +0.000 C 
ENDBRANCH   2   8
BRANCH   6  15
ATOM     14  N   UNL     1      27.156  38.820  17.698  0.00  0.00    +0.000 NA
ATOM     15  C   UNL     1      28.793  38.460  15.955  0.00  0.00    +0.000 A 
ATOM     16  C   UNL     1      28.171  39.416  15.162  0.00  0.00    +0.000 A 
ATOM     17  C   UNL     1      28.251  38.200  17.204  0.00  0.00    +0.000 A 
ATOM     18  C   UNL     1      27.042  40.077  15.635  0.00  0.00    +0.000 A 
ATOM     19  C   UNL     1      26.579  39.746  16.898  0.00  0.00    +0.000 A 
ENDBRANCH   6  15
TORSDOF 2
ENDMDL
