MODEL        3
REMARK  Name = 161313
REMARK  3 active torsions:
REMARK  status: ('A' for Active; 'I' for Inactive)
REMARK    1  A    between atoms: N_1  and  C_10
REMARK    2  A    between atoms: C_4  and  C_9
REMARK    3  A    between atoms: C_14  and  C_15
REMARK                            x       y       z     vdW  Elec       q    Type
REMARK                         _______ _______ _______ _____ _____    ______ ____
ROOT
ATOM      1  N   UNL     1      31.361  84.605  25.931  0.00  0.00    +0.000 NA
ATOM      2  C   UNL     1      30.414  86.581  24.936  0.00  0.00    +0.000 A 
ATOM      3  C   UNL     1      29.205  86.345  25.565  0.00  0.00    +0.000 A 
ATOM      4  C   UNL     1      31.454  85.699  25.142  0.00  0.00    +0.000 A 
ATOM      5  C   UNL     1      29.070  85.230  26.386  0.00  0.00    +0.000 A 
ATOM      6  C   UNL     1      30.169  84.399  26.534  0.00  0.00    +0.000 A 
ENDROOT
BRANCH   2   8
ATOM      7  N   UNL     1      32.004  88.261  23.952  0.00  0.00    +0.000 NA
ATOM      8  C   UNL     1      30.593  87.798  24.028  0.00  0.00    +0.000 C 
ATOM      9  C   UNL     1      30.034  87.456  22.627  0.00  0.00    +0.000 C 
ATOM     10  C   UNL     1      30.199  88.611  21.649  0.00  0.00    +0.000 C 
ATOM     11  C   UNL     1      31.653  89.055  21.615  0.00  0.00    +0.000 C 
ATOM     12  C   UNL     1      32.151  89.393  23.018  0.00  0.00    +0.000 C 
ATOM     13  C   UNL     1      32.520  88.669  25.265  0.00  0.00    +0.000 C 
ENDBRANCH   2   8
BRANCH   6  15
ATOM     14  N   UNL     1      30.176  82.262  29.588  0.00  0.00    +0.000 NA
ATOM     15  C   UNL     1      30.103  83.223  27.371  0.00  0.00    +0.000 A 
ATOM     16  C   UNL     1      29.916  81.961  26.820  0.00  0.00    +0.000 A 
ATOM     17  C   UNL     1      30.227  83.319  28.747  0.00  0.00    +0.000 A 
ATOM     18  C   UNL     1      29.857  80.848  27.653  0.00  0.00    +0.000 A 
ATOM     19  C   UNL     1      29.992  81.049  29.016  0.00  0.00    +0.000 A 
ENDBRANCH   6  15
TORSDOF 2
ENDMDL
