MODEL        5
REMARK  Name = 5280863
REMARK  5 active torsions:
REMARK  status: ('A' for Active; 'I' for Inactive)
REMARK    1  A    between atoms: O_2  and  C_11
REMARK    2  A    between atoms: O_3  and  C_13
REMARK    3  A    between atoms: O_5  and  C_15
REMARK    4  A    between atoms: O_6  and  C_21
REMARK    5  A    between atoms: C_9  and  C_12
REMARK                            x       y       z     vdW  Elec       q    Type
REMARK                         _______ _______ _______ _____ _____    ______ ____
ROOT
ATOM      1  O   UNL     1       8.990   1.185  16.292  0.00  0.00    +0.000 OA
ATOM      2  O   UNL     1      10.240   4.942  15.328  0.00  0.00    +0.000 OA
ATOM      3  C   UNL     1       8.459   3.402  15.459  0.00  0.00    +0.000 A 
ATOM      4  C   UNL     1       8.096   2.102  15.805  0.00  0.00    +0.000 A 
ATOM      5  C   UNL     1      10.311   1.573  16.459  0.00  0.00    +0.000 A 
ATOM      6  C   UNL     1       9.861   3.816  15.620  0.00  0.00    +0.000 A 
ATOM      7  C   UNL     1      10.791   2.793  16.155  0.00  0.00    +0.000 A 
ATOM      8  C   UNL     1       7.502   4.294  14.966  0.00  0.00    +0.000 A 
ATOM      9  C   UNL     1       6.772   1.685  15.659  0.00  0.00    +0.000 A 
ATOM     10  C   UNL     1       5.815   2.572  15.168  0.00  0.00    +0.000 A 
ATOM     11  C   UNL     1       6.179   3.874  14.822  0.00  0.00    +0.000 A 
ENDROOT
BRANCH   5  12
ATOM     12  C   UNL     1      11.164   0.495  16.988  0.00  0.00    +0.000 A 
ATOM     13  C   UNL     1      12.120   0.777  17.964  0.00  0.00    +0.000 A 
ATOM     14  C   UNL     1      11.016  -0.809  16.514  0.00  0.00    +0.000 A 
ATOM     15  C   UNL     1      12.928  -0.244  18.465  0.00  0.00    +0.000 A 
ATOM     16  C   UNL     1      11.823  -1.830  17.015  0.00  0.00    +0.000 A 
ATOM     17  C   UNL     1      12.780  -1.547  17.991  0.00  0.00    +0.000 A 
BRANCH  17  18
ATOM     18  O   UNL     1      13.568  -2.543  18.480  0.00  0.00    +0.000 OA
ATOM     19  H   UNL     1      13.629  -2.450  19.446  0.00  0.00    +0.000 HD
ENDBRANCH  17  18
ENDBRANCH   5  12
BRANCH   7  20
ATOM     20  O   UNL     1      12.118   3.137  16.301  0.00  0.00    +0.000 OA
ATOM     21  H   UNL     1      12.323   3.906  15.745  0.00  0.00    +0.000 HD
ENDBRANCH   7  20
BRANCH   8  22
ATOM     22  O   UNL     1       7.805   5.574  14.613  0.00  0.00    +0.000 OA
ATOM     23  H   UNL     1       8.750   5.658  14.412  0.00  0.00    +0.000 HD
ENDBRANCH   8  22
BRANCH  10  24
ATOM     24  O   UNL     1       4.523   2.168  15.024  0.00  0.00    +0.000 OA
ATOM     25  H   UNL     1       4.454   1.605  14.234  0.00  0.00    +0.000 HD
ENDBRANCH  10  24
TORSDOF 5
ENDMDL
