MODEL        4
REMARK  Name = 5280343
REMARK  6 active torsions:
REMARK  status: ('A' for Active; 'I' for Inactive)
REMARK    1  A    between atoms: O_2  and  C_12
REMARK    2  A    between atoms: O_3  and  C_14
REMARK    3  A    between atoms: O_5  and  C_16
REMARK    4  A    between atoms: O_6  and  C_20
REMARK    5  A    between atoms: O_7  and  C_22
REMARK    6  A    between atoms: C_10  and  C_11
REMARK                            x       y       z     vdW  Elec       q    Type
REMARK                         _______ _______ _______ _____ _____    ______ ____
ROOT
ATOM      1  O   UNL     1       8.866   1.277  16.305  0.00  0.00    +0.000 OA
ATOM      2  O   UNL     1      10.241   5.013  15.435  0.00  0.00    +0.000 OA
ATOM      3  C   UNL     1       8.422   3.512  15.470  0.00  0.00    +0.000 A 
ATOM      4  C   UNL     1       8.015   2.218  15.788  0.00  0.00    +0.000 A 
ATOM      5  C   UNL     1      10.186   1.633  16.534  0.00  0.00    +0.000 A 
ATOM      6  C   UNL     1      10.707   2.844  16.265  0.00  0.00    +0.000 A 
ATOM      7  C   UNL     1       9.824   3.893  15.699  0.00  0.00    +0.000 A 
ATOM      8  C   UNL     1       7.509   4.430  14.944  0.00  0.00    +0.000 A 
ATOM      9  C   UNL     1       6.691   1.832  15.578  0.00  0.00    +0.000 A 
ATOM     10  C   UNL     1       5.776   2.746  15.052  0.00  0.00    +0.000 A 
ATOM     11  C   UNL     1       6.186   4.042  14.736  0.00  0.00    +0.000 A 
ENDROOT
BRANCH   5  12
ATOM     12  C   UNL     1      10.990   0.531  17.091  0.00  0.00    +0.000 A 
ATOM     13  C   UNL     1      10.466  -0.274  18.101  0.00  0.00    +0.000 A 
ATOM     14  C   UNL     1      12.277   0.294  16.606  0.00  0.00    +0.000 A 
ATOM     15  C   UNL     1      11.228  -1.318  18.627  0.00  0.00    +0.000 A 
ATOM     16  C   UNL     1      13.039  -0.749  17.133  0.00  0.00    +0.000 A 
ATOM     17  C   UNL     1      12.515  -1.555  18.143  0.00  0.00    +0.000 A 
BRANCH  15  18
ATOM     18  O   UNL     1      10.707  -2.098  19.615  0.00  0.00    +0.000 OA
ATOM     19  H   UNL     1      11.414  -2.621  20.028  0.00  0.00    +0.000 HD
ENDBRANCH  15  18
BRANCH  17  20
ATOM     20  O   UNL     1      13.268  -2.572  18.648  0.00  0.00    +0.000 OA
ATOM     21  H   UNL     1      12.886  -2.878  19.486  0.00  0.00    +0.000 HD
ENDBRANCH  17  20
ENDBRANCH   5  12
BRANCH   6  22
ATOM     22  O   UNL     1      12.033   3.156  16.474  0.00  0.00    +0.000 OA
ATOM     23  H   UNL     1      12.278   3.927  15.938  0.00  0.00    +0.000 HD
ENDBRANCH   6  22
BRANCH   8  24
ATOM     24  O   UNL     1       7.856   5.706  14.618  0.00  0.00    +0.000 OA
ATOM     25  H   UNL     1       8.393   6.103  15.320  0.00  0.00    +0.000 HD
ENDBRANCH   8  24
BRANCH  10  26
ATOM     26  O   UNL     1       4.484   2.372  14.847  0.00  0.00    +0.000 OA
ATOM     27  H   UNL     1       4.419   1.915  13.991  0.00  0.00    +0.000 HD
ENDBRANCH  10  26
TORSDOF 6
ENDMDL
