MODEL        5
REMARK  Name = 5280863
REMARK  5 active torsions:
REMARK  status: ('A' for Active; 'I' for Inactive)
REMARK    1  A    between atoms: O_2  and  C_11
REMARK    2  A    between atoms: O_3  and  C_13
REMARK    3  A    between atoms: O_5  and  C_15
REMARK    4  A    between atoms: O_6  and  C_21
REMARK    5  A    between atoms: C_9  and  C_12
REMARK                            x       y       z     vdW  Elec       q    Type
REMARK                         _______ _______ _______ _____ _____    ______ ____
ROOT
ATOM      1  O   UNL     1      30.101  85.314  25.068  0.00  0.00    +0.000 OA
ATOM      2  O   UNL     1      26.717  85.041  22.815  0.00  0.00    +0.000 OA
ATOM      3  C   UNL     1      28.834  86.032  23.126  0.00  0.00    +0.000 A 
ATOM      4  C   UNL     1      29.964  86.080  23.940  0.00  0.00    +0.000 A 
ATOM      5  C   UNL     1      29.075  84.446  25.407  0.00  0.00    +0.000 A 
ATOM      6  C   UNL     1      27.736  85.122  23.487  0.00  0.00    +0.000 A 
ATOM      7  C   UNL     1      27.931  84.310  24.713  0.00  0.00    +0.000 A 
ATOM      8  C   UNL     1      28.750  86.837  21.987  0.00  0.00    +0.000 A 
ATOM      9  C   UNL     1      31.019  86.936  23.619  0.00  0.00    +0.000 A 
ATOM     10  C   UNL     1      30.938  87.741  22.484  0.00  0.00    +0.000 A 
ATOM     11  C   UNL     1      29.806  87.691  21.669  0.00  0.00    +0.000 A 
ENDROOT
BRANCH   5  12
ATOM     12  C   UNL     1      29.349  83.685  26.639  0.00  0.00    +0.000 A 
ATOM     13  C   UNL     1      28.983  82.342  26.726  0.00  0.00    +0.000 A 
ATOM     14  C   UNL     1      29.977  84.308  27.718  0.00  0.00    +0.000 A 
ATOM     15  C   UNL     1      29.242  81.622  27.892  0.00  0.00    +0.000 A 
ATOM     16  C   UNL     1      30.236  83.588  28.884  0.00  0.00    +0.000 A 
ATOM     17  C   UNL     1      29.868  82.244  28.971  0.00  0.00    +0.000 A 
BRANCH  17  18
ATOM     18  O   UNL     1      30.123  81.541  30.109  0.00  0.00    +0.000 OA
ATOM     19  H   UNL     1      29.480  80.816  30.180  0.00  0.00    +0.000 HD
ENDBRANCH  17  18
ENDBRANCH   5  12
BRANCH   7  20
ATOM     20  O   UNL     1      26.914  83.461  25.096  0.00  0.00    +0.000 OA
ATOM     21  H   UNL     1      26.253  83.398  24.388  0.00  0.00    +0.000 HD
ENDBRANCH   7  20
BRANCH   8  22
ATOM     22  O   UNL     1      27.668  86.827  21.159  0.00  0.00    +0.000 OA
ATOM     23  H   UNL     1      26.846  86.857  21.673  0.00  0.00    +0.000 HD
ENDBRANCH   8  22
BRANCH  10  24
ATOM     24  O   UNL     1      31.965  88.578  22.169  0.00  0.00    +0.000 OA
ATOM     25  H   UNL     1      32.488  88.179  21.452  0.00  0.00    +0.000 HD
ENDBRANCH  10  24
TORSDOF 5
ENDMDL
