MODEL        5
REMARK  Name = 5280863
REMARK  5 active torsions:
REMARK  status: ('A' for Active; 'I' for Inactive)
REMARK    1  A    between atoms: O_2  and  C_11
REMARK    2  A    between atoms: O_3  and  C_13
REMARK    3  A    between atoms: O_5  and  C_15
REMARK    4  A    between atoms: O_6  and  C_21
REMARK    5  A    between atoms: C_9  and  C_12
REMARK                            x       y       z     vdW  Elec       q    Type
REMARK                         _______ _______ _______ _____ _____    ______ ____
ROOT
ATOM      1  O   UNL     1       8.077   6.238  93.397  0.00  0.00    +0.000 OA
ATOM      2  O   UNL     1      11.250   8.758  93.824  0.00  0.00    +0.000 OA
ATOM      3  C   UNL     1       9.006   8.264  94.356  0.00  0.00    +0.000 A 
ATOM      4  C   UNL     1       7.960   7.364  94.169  0.00  0.00    +0.000 A 
ATOM      5  C   UNL     1       9.294   5.977  92.787  0.00  0.00    +0.000 A 
ATOM      6  C   UNL     1      10.296   8.001  93.701  0.00  0.00    +0.000 A 
ATOM      7  C   UNL     1      10.378   6.769  92.880  0.00  0.00    +0.000 A 
ATOM      8  C   UNL     1       8.828   9.397  95.155  0.00  0.00    +0.000 A 
ATOM      9  C   UNL     1       6.725   7.592  94.779  0.00  0.00    +0.000 A 
ATOM     10  C   UNL     1       6.544   8.722  95.576  0.00  0.00    +0.000 A 
ATOM     11  C   UNL     1       7.593   9.622  95.764  0.00  0.00    +0.000 A 
ENDROOT
BRANCH   5  12
ATOM     12  C   UNL     1       9.283   4.739  91.988  0.00  0.00    +0.000 A 
ATOM     13  C   UNL     1       9.255   4.808  90.595  0.00  0.00    +0.000 A 
ATOM     14  C   UNL     1       9.304   3.498  92.625  0.00  0.00    +0.000 A 
ATOM     15  C   UNL     1       9.246   3.636  89.839  0.00  0.00    +0.000 A 
ATOM     16  C   UNL     1       9.295   2.326  91.869  0.00  0.00    +0.000 A 
ATOM     17  C   UNL     1       9.265   2.395  90.475  0.00  0.00    +0.000 A 
BRANCH  17  18
ATOM     18  O   UNL     1       9.257   1.251  89.737  0.00  0.00    +0.000 OA
ATOM     19  H   UNL     1      10.115   0.805  89.839  0.00  0.00    +0.000 HD
ENDBRANCH  17  18
ENDBRANCH   5  12
BRANCH   7  20
ATOM     20  O   UNL     1      11.565   6.499  92.232  0.00  0.00    +0.000 OA
ATOM     21  H   UNL     1      12.154   7.268  92.290  0.00  0.00    +0.000 HD
ENDBRANCH   7  20
BRANCH   8  22
ATOM     22  O   UNL     1       9.819  10.307  95.370  0.00  0.00    +0.000 OA
ATOM     23  H   UNL     1      10.654   9.859  95.572  0.00  0.00    +0.000 HD
ENDBRANCH   8  22
BRANCH  10  24
ATOM     24  O   UNL     1       5.341   8.947  96.173  0.00  0.00    +0.000 OA
ATOM     25  H   UNL     1       4.683   9.153  95.488  0.00  0.00    +0.000 HD
ENDBRANCH  10  24
TORSDOF 5
ENDMDL
