MODEL        5
REMARK  Name = 5280863
REMARK  5 active torsions:
REMARK  status: ('A' for Active; 'I' for Inactive)
REMARK    1  A    between atoms: O_2  and  C_11
REMARK    2  A    between atoms: O_3  and  C_13
REMARK    3  A    between atoms: O_5  and  C_15
REMARK    4  A    between atoms: O_6  and  C_21
REMARK    5  A    between atoms: C_9  and  C_12
REMARK                            x       y       z     vdW  Elec       q    Type
REMARK                         _______ _______ _______ _____ _____    ______ ____
ROOT
ATOM      1  O   UNL     1      20.999  -1.203   5.922  0.00  0.00    +0.000 OA
ATOM      2  O   UNL     1      24.836  -2.500   5.484  0.00  0.00    +0.000 OA
ATOM      3  C   UNL     1      23.035  -1.259   4.603  0.00  0.00    +0.000 A 
ATOM      4  C   UNL     1      21.720  -0.850   4.812  0.00  0.00    +0.000 A 
ATOM      5  C   UNL     1      21.610  -1.990   6.886  0.00  0.00    +0.000 A 
ATOM      6  C   UNL     1      23.685  -2.106   5.615  0.00  0.00    +0.000 A 
ATOM      7  C   UNL     1      22.869  -2.457   6.802  0.00  0.00    +0.000 A 
ATOM      8  C   UNL     1      23.721  -0.869   3.450  0.00  0.00    +0.000 A 
ATOM      9  C   UNL     1      21.080  -0.048   3.865  0.00  0.00    +0.000 A 
ATOM     10  C   UNL     1      21.761   0.343   2.713  0.00  0.00    +0.000 A 
ATOM     11  C   UNL     1      23.079  -0.066   2.506  0.00  0.00    +0.000 A 
ENDROOT
BRANCH   5  12
ATOM     12  C   UNL     1      20.726  -2.295   8.024  0.00  0.00    +0.000 A 
ATOM     13  C   UNL     1      20.397  -1.296   8.940  0.00  0.00    +0.000 A 
ATOM     14  C   UNL     1      20.217  -3.584   8.186  0.00  0.00    +0.000 A 
ATOM     15  C   UNL     1      19.560  -1.585  10.018  0.00  0.00    +0.000 A 
ATOM     16  C   UNL     1      19.380  -3.873   9.264  0.00  0.00    +0.000 A 
ATOM     17  C   UNL     1      19.052  -2.873  10.180  0.00  0.00    +0.000 A 
BRANCH  17  18
ATOM     18  O   UNL     1      18.234  -3.155  11.231  0.00  0.00    +0.000 OA
ATOM     19  H   UNL     1      17.338  -2.840  11.026  0.00  0.00    +0.000 HD
ENDBRANCH  17  18
ENDBRANCH   5  12
BRANCH   7  20
ATOM     20  O   UNL     1      23.437  -3.267   7.762  0.00  0.00    +0.000 OA
ATOM     21  H   UNL     1      24.315  -3.560   7.470  0.00  0.00    +0.000 HD
ENDBRANCH   7  20
BRANCH   8  22
ATOM     22  O   UNL     1      25.007  -1.241   3.199  0.00  0.00    +0.000 OA
ATOM     23  H   UNL     1      25.210  -2.082   3.637  0.00  0.00    +0.000 HD
ENDBRANCH   8  22
BRANCH  10  24
ATOM     24  O   UNL     1      21.140   1.126   1.788  0.00  0.00    +0.000 OA
ATOM     25  H   UNL     1      20.450   1.649   2.230  0.00  0.00    +0.000 HD
ENDBRANCH  10  24
TORSDOF 5
ENDMDL
