MODEL        5
REMARK  Name = 5280863
REMARK  5 active torsions:
REMARK  status: ('A' for Active; 'I' for Inactive)
REMARK    1  A    between atoms: O_2  and  C_11
REMARK    2  A    between atoms: O_3  and  C_13
REMARK    3  A    between atoms: O_5  and  C_15
REMARK    4  A    between atoms: O_6  and  C_21
REMARK    5  A    between atoms: C_9  and  C_12
REMARK                            x       y       z     vdW  Elec       q    Type
REMARK                         _______ _______ _______ _____ _____    ______ ____
ROOT
ATOM      1  O   UNL     1      29.649  36.487  15.031  0.00  0.00    +0.000 OA
ATOM      2  O   UNL     1      31.078  39.289  12.442  0.00  0.00    +0.000 OA
ATOM      3  C   UNL     1      29.664  38.789  14.261  0.00  0.00    +0.000 A 
ATOM      4  C   UNL     1      29.213  37.784  15.114  0.00  0.00    +0.000 A 
ATOM      5  C   UNL     1      30.588  36.165  14.064  0.00  0.00    +0.000 A 
ATOM      6  C   UNL     1      30.650  38.451  13.223  0.00  0.00    +0.000 A 
ATOM      7  C   UNL     1      31.096  37.038  13.175  0.00  0.00    +0.000 A 
ATOM      8  C   UNL     1      29.183  40.094  14.392  0.00  0.00    +0.000 A 
ATOM      9  C   UNL     1      28.275  38.079  16.105  0.00  0.00    +0.000 A 
ATOM     10  C   UNL     1      27.793  39.380  16.239  0.00  0.00    +0.000 A 
ATOM     11  C   UNL     1      28.246  40.386  15.384  0.00  0.00    +0.000 A 
ENDROOT
BRANCH   5  12
ATOM     12  C   UNL     1      30.969  34.742  14.083  0.00  0.00    +0.000 A 
ATOM     13  C   UNL     1      30.114  33.783  13.539  0.00  0.00    +0.000 A 
ATOM     14  C   UNL     1      32.185  34.353  14.645  0.00  0.00    +0.000 A 
ATOM     15  C   UNL     1      30.475  32.436  13.557  0.00  0.00    +0.000 A 
ATOM     16  C   UNL     1      32.547  33.006  14.663  0.00  0.00    +0.000 A 
ATOM     17  C   UNL     1      31.690  32.047  14.119  0.00  0.00    +0.000 A 
BRANCH  17  18
ATOM     18  O   UNL     1      32.043  30.732  14.136  0.00  0.00    +0.000 OA
ATOM     19  H   UNL     1      33.001  30.666  14.286  0.00  0.00    +0.000 HD
ENDBRANCH  17  18
ENDBRANCH   5  12
BRANCH   7  20
ATOM     20  O   UNL     1      32.005  36.678  12.202  0.00  0.00    +0.000 OA
ATOM     21  H   UNL     1      32.232  37.451  11.661  0.00  0.00    +0.000 HD
ENDBRANCH   7  20
BRANCH   8  22
ATOM     22  O   UNL     1      29.591  41.112  13.583  0.00  0.00    +0.000 OA
ATOM     23  H   UNL     1      29.898  40.767  12.731  0.00  0.00    +0.000 HD
ENDBRANCH   8  22
BRANCH  10  24
ATOM     24  O   UNL     1      26.879  39.671  17.205  0.00  0.00    +0.000 OA
ATOM     25  H   UNL     1      27.338  39.760  18.057  0.00  0.00    +0.000 HD
ENDBRANCH  10  24
TORSDOF 5
ENDMDL
