MODEL        4
REMARK  Name = 5280343
REMARK  6 active torsions:
REMARK  status: ('A' for Active; 'I' for Inactive)
REMARK    1  A    between atoms: O_2  and  C_12
REMARK    2  A    between atoms: O_3  and  C_14
REMARK    3  A    between atoms: O_5  and  C_16
REMARK    4  A    between atoms: O_6  and  C_20
REMARK    5  A    between atoms: O_7  and  C_22
REMARK    6  A    between atoms: C_10  and  C_11
REMARK                            x       y       z     vdW  Elec       q    Type
REMARK                         _______ _______ _______ _____ _____    ______ ____
ROOT
ATOM      1  O   UNL     1      60.523  32.092  75.634  0.00  0.00    +0.000 OA
ATOM      2  O   UNL     1      57.337  34.628  75.809  0.00  0.00    +0.000 OA
ATOM      3  C   UNL     1      58.999  33.597  74.491  0.00  0.00    +0.000 A 
ATOM      4  C   UNL     1      60.083  32.720  74.498  0.00  0.00    +0.000 A 
ATOM      5  C   UNL     1      59.853  32.330  76.824  0.00  0.00    +0.000 A 
ATOM      6  C   UNL     1      58.800  33.158  76.954  0.00  0.00    +0.000 A 
ATOM      7  C   UNL     1      58.292  33.863  75.753  0.00  0.00    +0.000 A 
ATOM      8  C   UNL     1      58.596  34.209  73.302  0.00  0.00    +0.000 A 
ATOM      9  C   UNL     1      60.771  32.452  73.315  0.00  0.00    +0.000 A 
ATOM     10  C   UNL     1      60.371  33.063  72.125  0.00  0.00    +0.000 A 
ATOM     11  C   UNL     1      59.285  33.940  72.120  0.00  0.00    +0.000 A 
ENDROOT
BRANCH   5  12
ATOM     12  C   UNL     1      60.427  31.594  77.964  0.00  0.00    +0.000 A 
ATOM     13  C   UNL     1      61.463  32.157  78.708  0.00  0.00    +0.000 A 
ATOM     14  C   UNL     1      59.932  30.333  78.300  0.00  0.00    +0.000 A 
ATOM     15  C   UNL     1      62.005  31.461  79.788  0.00  0.00    +0.000 A 
ATOM     16  C   UNL     1      60.475  29.636  79.379  0.00  0.00    +0.000 A 
ATOM     17  C   UNL     1      61.512  30.199  80.123  0.00  0.00    +0.000 A 
BRANCH  15  18
ATOM     18  O   UNL     1      63.018  32.019  80.506  0.00  0.00    +0.000 OA
ATOM     19  H   UNL     1      63.271  31.427  81.233  0.00  0.00    +0.000 HD
ENDBRANCH  15  18
BRANCH  17  20
ATOM     20  O   UNL     1      62.032  29.510  81.177  0.00  0.00    +0.000 OA
ATOM     21  H   UNL     1      62.847  29.941  81.480  0.00  0.00    +0.000 HD
ENDBRANCH  17  20
ENDBRANCH   5  12
BRANCH   6  22
ATOM     22  O   UNL     1      58.176  33.398  78.159  0.00  0.00    +0.000 OA
ATOM     23  H   UNL     1      57.469  34.052  78.039  0.00  0.00    +0.000 HD
ENDBRANCH   6  22
BRANCH   8  24
ATOM     24  O   UNL     1      57.544  35.074  73.241  0.00  0.00    +0.000 OA
ATOM     25  H   UNL     1      56.782  34.716  73.722  0.00  0.00    +0.000 HD
ENDBRANCH   8  24
BRANCH  10  26
ATOM     26  O   UNL     1      61.041  32.803  70.970  0.00  0.00    +0.000 OA
ATOM     27  H   UNL     1      61.532  31.969  71.069  0.00  0.00    +0.000 HD
ENDBRANCH  10  26
TORSDOF 6
ENDMDL
