MODEL        5
REMARK  Name = 5280863
REMARK  5 active torsions:
REMARK  status: ('A' for Active; 'I' for Inactive)
REMARK    1  A    between atoms: O_2  and  C_11
REMARK    2  A    between atoms: O_3  and  C_13
REMARK    3  A    between atoms: O_5  and  C_15
REMARK    4  A    between atoms: O_6  and  C_21
REMARK    5  A    between atoms: C_9  and  C_12
REMARK                            x       y       z     vdW  Elec       q    Type
REMARK                         _______ _______ _______ _____ _____    ______ ____
ROOT
ATOM      1  O   UNL     1      60.556  32.143  75.556  0.00  0.00    +0.000 OA
ATOM      2  O   UNL     1      57.385  34.700  75.658  0.00  0.00    +0.000 OA
ATOM      3  C   UNL     1      59.044  33.626  74.371  0.00  0.00    +0.000 A 
ATOM      4  C   UNL     1      60.122  32.745  74.404  0.00  0.00    +0.000 A 
ATOM      5  C   UNL     1      59.884  32.414  76.738  0.00  0.00    +0.000 A 
ATOM      6  C   UNL     1      58.335  33.929  75.624  0.00  0.00    +0.000 A 
ATOM      7  C   UNL     1      58.836  33.251  76.844  0.00  0.00    +0.000 A 
ATOM      8  C   UNL     1      58.647  34.211  73.166  0.00  0.00    +0.000 A 
ATOM      9  C   UNL     1      60.813  32.442  73.229  0.00  0.00    +0.000 A 
ATOM     10  C   UNL     1      60.420  33.024  72.024  0.00  0.00    +0.000 A 
ATOM     11  C   UNL     1      59.339  33.906  71.992  0.00  0.00    +0.000 A 
ENDROOT
BRANCH   5  12
ATOM     12  C   UNL     1      60.451  31.705  77.898  0.00  0.00    +0.000 A 
ATOM     13  C   UNL     1      61.530  32.253  78.592  0.00  0.00    +0.000 A 
ATOM     14  C   UNL     1      59.908  30.486  78.304  0.00  0.00    +0.000 A 
ATOM     15  C   UNL     1      62.067  31.582  79.691  0.00  0.00    +0.000 A 
ATOM     16  C   UNL     1      60.445  29.815  79.403  0.00  0.00    +0.000 A 
ATOM     17  C   UNL     1      61.525  30.363  80.096  0.00  0.00    +0.000 A 
BRANCH  17  18
ATOM     18  O   UNL     1      62.048  29.708  81.169  0.00  0.00    +0.000 OA
ATOM     19  H   UNL     1      63.012  29.645  81.059  0.00  0.00    +0.000 HD
ENDBRANCH  17  18
ENDBRANCH   5  12
BRANCH   7  20
ATOM     20  O   UNL     1      58.210  33.526  78.041  0.00  0.00    +0.000 OA
ATOM     21  H   UNL     1      57.518  34.193  77.906  0.00  0.00    +0.000 HD
ENDBRANCH   7  20
BRANCH   8  22
ATOM     22  O   UNL     1      57.600  35.079  73.080  0.00  0.00    +0.000 OA
ATOM     23  H   UNL     1      56.836  34.739  73.570  0.00  0.00    +0.000 HD
ENDBRANCH   8  22
BRANCH  10  24
ATOM     24  O   UNL     1      61.091  32.731  70.877  0.00  0.00    +0.000 OA
ATOM     25  H   UNL     1      61.109  33.522  70.311  0.00  0.00    +0.000 HD
ENDBRANCH  10  24
TORSDOF 5
ENDMDL
