MODEL        4
REMARK  Name = 5280343
REMARK  6 active torsions:
REMARK  status: ('A' for Active; 'I' for Inactive)
REMARK    1  A    between atoms: O_2  and  C_12
REMARK    2  A    between atoms: O_3  and  C_14
REMARK    3  A    between atoms: O_5  and  C_16
REMARK    4  A    between atoms: O_6  and  C_20
REMARK    5  A    between atoms: O_7  and  C_22
REMARK    6  A    between atoms: C_10  and  C_11
REMARK                            x       y       z     vdW  Elec       q    Type
REMARK                         _______ _______ _______ _____ _____    ______ ____
ROOT
ATOM      1  O   UNL     1      21.076  -1.097   5.829  0.00  0.00    +0.000 OA
ATOM      2  O   UNL     1      24.904  -2.374   5.259  0.00  0.00    +0.000 OA
ATOM      3  C   UNL     1      23.081  -1.108   4.461  0.00  0.00    +0.000 A 
ATOM      4  C   UNL     1      21.770  -0.707   4.714  0.00  0.00    +0.000 A 
ATOM      5  C   UNL     1      21.710  -1.914   6.752  0.00  0.00    +0.000 A 
ATOM      6  C   UNL     1      22.967  -2.377   6.623  0.00  0.00    +0.000 A 
ATOM      7  C   UNL     1      23.755  -1.986   5.430  0.00  0.00    +0.000 A 
ATOM      8  C   UNL     1      23.739  -0.680   3.306  0.00  0.00    +0.000 A 
ATOM      9  C   UNL     1      21.108   0.124   3.810  0.00  0.00    +0.000 A 
ATOM     10  C   UNL     1      21.762   0.553   2.654  0.00  0.00    +0.000 A 
ATOM     11  C   UNL     1      23.075   0.151   2.404  0.00  0.00    +0.000 A 
ENDROOT
BRANCH   5  12
ATOM     12  C   UNL     1      20.854  -2.257   7.901  0.00  0.00    +0.000 A 
ATOM     13  C   UNL     1      20.377  -3.559   8.052  0.00  0.00    +0.000 A 
ATOM     14  C   UNL     1      20.521  -1.278   8.838  0.00  0.00    +0.000 A 
ATOM     15  C   UNL     1      19.567  -3.883   9.141  0.00  0.00    +0.000 A 
ATOM     16  C   UNL     1      19.711  -1.603   9.927  0.00  0.00    +0.000 A 
ATOM     17  C   UNL     1      19.234  -2.904  10.078  0.00  0.00    +0.000 A 
BRANCH  15  18
ATOM     18  O   UNL     1      19.106  -5.157   9.278  0.00  0.00    +0.000 OA
ATOM     19  H   UNL     1      18.182  -5.141   9.576  0.00  0.00    +0.000 HD
ENDBRANCH  15  18
BRANCH  17  20
ATOM     20  O   UNL     1      18.445  -3.209  11.146  0.00  0.00    +0.000 OA
ATOM     21  H   UNL     1      18.984  -3.241  11.952  0.00  0.00    +0.000 HD
ENDBRANCH  17  20
ENDBRANCH   5  12
BRANCH   6  22
ATOM     22  O   UNL     1      23.558  -3.216   7.543  0.00  0.00    +0.000 OA
ATOM     23  H   UNL     1      24.464  -3.423   7.266  0.00  0.00    +0.000 HD
ENDBRANCH   6  22
BRANCH   8  24
ATOM     24  O   UNL     1      25.019  -1.043   3.012  0.00  0.00    +0.000 OA
ATOM     25  H   UNL     1      25.228  -1.903   3.407  0.00  0.00    +0.000 HD
ENDBRANCH   8  24
BRANCH  10  26
ATOM     26  O   UNL     1      21.119   1.364   1.771  0.00  0.00    +0.000 OA
ATOM     27  H   UNL     1      20.428   1.860   2.242  0.00  0.00    +0.000 HD
ENDBRANCH  10  26
TORSDOF 6
ENDMDL
