MODEL        4
REMARK  Name = 5280343
REMARK  6 active torsions:
REMARK  status: ('A' for Active; 'I' for Inactive)
REMARK    1  A    between atoms: O_2  and  C_12
REMARK    2  A    between atoms: O_3  and  C_14
REMARK    3  A    between atoms: O_5  and  C_16
REMARK    4  A    between atoms: O_6  and  C_20
REMARK    5  A    between atoms: O_7  and  C_22
REMARK    6  A    between atoms: C_10  and  C_11
REMARK                            x       y       z     vdW  Elec       q    Type
REMARK                         _______ _______ _______ _____ _____    ______ ____
ROOT
ATOM      1  O   UNL     1       8.044   6.238  93.712  0.00  0.00    +0.000 OA
ATOM      2  O   UNL     1      11.136   8.892  93.784  0.00  0.00    +0.000 OA
ATOM      3  C   UNL     1       8.931   8.375  94.443  0.00  0.00    +0.000 A 
ATOM      4  C   UNL     1       7.912   7.427  94.380  0.00  0.00    +0.000 A 
ATOM      5  C   UNL     1       9.249   5.961  93.084  0.00  0.00    +0.000 A 
ATOM      6  C   UNL     1      10.306   6.794  93.063  0.00  0.00    +0.000 A 
ATOM      7  C   UNL     1      10.207   8.095  93.767  0.00  0.00    +0.000 A 
ATOM      8  C   UNL     1       8.738   9.572  95.138  0.00  0.00    +0.000 A 
ATOM      9  C   UNL     1       6.691   7.671  95.010  0.00  0.00    +0.000 A 
ATOM     10  C   UNL     1       6.495   8.865  95.705  0.00  0.00    +0.000 A 
ATOM     11  C   UNL     1       7.518   9.813  95.768  0.00  0.00    +0.000 A 
ENDROOT
BRANCH   5  12
ATOM     12  C   UNL     1       9.257   4.654  92.406  0.00  0.00    +0.000 A 
ATOM     13  C   UNL     1       9.256   4.590  91.013  0.00  0.00    +0.000 A 
ATOM     14  C   UNL     1       9.267   3.478  93.158  0.00  0.00    +0.000 A 
ATOM     15  C   UNL     1       9.266   3.351  90.371  0.00  0.00    +0.000 A 
ATOM     16  C   UNL     1       9.276   2.240  92.516  0.00  0.00    +0.000 A 
ATOM     17  C   UNL     1       9.275   2.176  91.123  0.00  0.00    +0.000 A 
BRANCH  15  18
ATOM     18  O   UNL     1       9.263   3.300  89.010  0.00  0.00    +0.000 OA
ATOM     19  H   UNL     1       9.311   2.376  88.716  0.00  0.00    +0.000 HD
ENDBRANCH  15  18
BRANCH  17  20
ATOM     20  O   UNL     1       9.285   0.960  90.508  0.00  0.00    +0.000 OA
ATOM     21  H   UNL     1       8.983   1.055  89.591  0.00  0.00    +0.000 HD
ENDBRANCH  17  20
ENDBRANCH   5  12
BRANCH   6  22
ATOM     22  O   UNL     1      11.479   6.503  92.401  0.00  0.00    +0.000 OA
ATOM     23  H   UNL     1      12.080   7.264  92.445  0.00  0.00    +0.000 HD
ENDBRANCH   6  22
BRANCH   8  24
ATOM     24  O   UNL     1       9.701  10.531  95.230  0.00  0.00    +0.000 OA
ATOM     25  H   UNL     1      10.514  10.241  94.790  0.00  0.00    +0.000 HD
ENDBRANCH   8  24
BRANCH  10  26
ATOM     26  O   UNL     1       5.306   9.105  96.321  0.00  0.00    +0.000 OA
ATOM     27  H   UNL     1       4.604   9.140  95.650  0.00  0.00    +0.000 HD
ENDBRANCH  10  26
TORSDOF 6
ENDMDL
