MODEL        4
REMARK  Name = 5280343
REMARK  6 active torsions:
REMARK  status: ('A' for Active; 'I' for Inactive)
REMARK    1  A    between atoms: O_2  and  C_12
REMARK    2  A    between atoms: O_3  and  C_14
REMARK    3  A    between atoms: O_5  and  C_16
REMARK    4  A    between atoms: O_6  and  C_20
REMARK    5  A    between atoms: O_7  and  C_22
REMARK    6  A    between atoms: C_10  and  C_11
REMARK                            x       y       z     vdW  Elec       q    Type
REMARK                         _______ _______ _______ _____ _____    ______ ____
ROOT
ATOM      1  O   UNL     1      30.243  85.308  25.071  0.00  0.00    +0.000 OA
ATOM      2  O   UNL     1      26.818  85.031  22.879  0.00  0.00    +0.000 OA
ATOM      3  C   UNL     1      28.943  86.018  23.148  0.00  0.00    +0.000 A 
ATOM      4  C   UNL     1      30.088  86.068  23.941  0.00  0.00    +0.000 A 
ATOM      5  C   UNL     1      29.221  84.444  25.432  0.00  0.00    +0.000 A 
ATOM      6  C   UNL     1      28.064  84.307  24.760  0.00  0.00    +0.000 A 
ATOM      7  C   UNL     1      27.849  85.113  23.534  0.00  0.00    +0.000 A 
ATOM      8  C   UNL     1      28.840  86.818  22.007  0.00  0.00    +0.000 A 
ATOM      9  C   UNL     1      31.138  86.920  23.598  0.00  0.00    +0.000 A 
ATOM     10  C   UNL     1      31.039  87.720  22.459  0.00  0.00    +0.000 A 
ATOM     11  C   UNL     1      29.891  87.669  21.666  0.00  0.00    +0.000 A 
ENDROOT
BRANCH   5  12
ATOM     12  C   UNL     1      29.515  83.688  26.662  0.00  0.00    +0.000 A 
ATOM     13  C   UNL     1      29.364  82.301  26.683  0.00  0.00    +0.000 A 
ATOM     14  C   UNL     1      29.946  84.360  27.807  0.00  0.00    +0.000 A 
ATOM     15  C   UNL     1      29.644  81.586  27.847  0.00  0.00    +0.000 A 
ATOM     16  C   UNL     1      30.225  83.644  28.972  0.00  0.00    +0.000 A 
ATOM     17  C   UNL     1      30.074  82.258  28.992  0.00  0.00    +0.000 A 
BRANCH  15  18
ATOM     18  O   UNL     1      29.492  80.233  27.856  0.00  0.00    +0.000 OA
ATOM     19  H   UNL     1      29.474  79.910  28.772  0.00  0.00    +0.000 HD
ENDBRANCH  15  18
BRANCH  17  20
ATOM     20  O   UNL     1      30.352  81.570  30.135  0.00  0.00    +0.000 OA
ATOM     21  H   UNL     1      29.951  80.687  30.092  0.00  0.00    +0.000 HD
ENDBRANCH  17  20
ENDBRANCH   5  12
BRANCH   6  22
ATOM     22  O   UNL     1      27.053  83.462  25.164  0.00  0.00    +0.000 OA
ATOM     23  H   UNL     1      26.348  83.449  24.498  0.00  0.00    +0.000 HD
ENDBRANCH   6  22
BRANCH   8  24
ATOM     24  O   UNL     1      27.743  86.808  21.199  0.00  0.00    +0.000 OA
ATOM     25  H   UNL     1      26.931  86.845  21.727  0.00  0.00    +0.000 HD
ENDBRANCH   8  24
BRANCH  10  26
ATOM     26  O   UNL     1      32.061  88.552  22.122  0.00  0.00    +0.000 OA
ATOM     27  H   UNL     1      32.511  88.198  21.335  0.00  0.00    +0.000 HD
ENDBRANCH  10  26
TORSDOF 6
ENDMDL
