MODEL        4
REMARK  Name = 5280343
REMARK  6 active torsions:
REMARK  status: ('A' for Active; 'I' for Inactive)
REMARK    1  A    between atoms: O_2  and  C_12
REMARK    2  A    between atoms: O_3  and  C_14
REMARK    3  A    between atoms: O_5  and  C_16
REMARK    4  A    between atoms: O_6  and  C_20
REMARK    5  A    between atoms: O_7  and  C_22
REMARK    6  A    between atoms: C_10  and  C_11
REMARK                            x       y       z     vdW  Elec       q    Type
REMARK                         _______ _______ _______ _____ _____    ______ ____
ROOT
ATOM      1  O   UNL     1      29.764  36.581  15.010  0.00  0.00    +0.000 OA
ATOM      2  O   UNL     1      31.075  39.531  12.522  0.00  0.00    +0.000 OA
ATOM      3  C   UNL     1      29.685  38.907  14.323  0.00  0.00    +0.000 A 
ATOM      4  C   UNL     1      29.277  37.855  15.140  0.00  0.00    +0.000 A 
ATOM      5  C   UNL     1      30.714  36.332  14.032  0.00  0.00    +0.000 A 
ATOM      6  C   UNL     1      31.185  37.256  13.174  0.00  0.00    +0.000 A 
ATOM      7  C   UNL     1      30.683  38.647  13.274  0.00  0.00    +0.000 A 
ATOM      8  C   UNL     1      29.152  40.186  14.501  0.00  0.00    +0.000 A 
ATOM      9  C   UNL     1      28.330  38.076  16.141  0.00  0.00    +0.000 A 
ATOM     10  C   UNL     1      27.796  39.352  16.322  0.00  0.00    +0.000 A 
ATOM     11  C   UNL     1      28.207  40.405  15.502  0.00  0.00    +0.000 A 
ENDROOT
BRANCH   5  12
ATOM     12  C   UNL     1      31.153  34.926  14.000  0.00  0.00    +0.000 A 
ATOM     13  C   UNL     1      32.502  34.612  14.161  0.00  0.00    +0.000 A 
ATOM     14  C   UNL     1      30.217  33.908  13.810  0.00  0.00    +0.000 A 
ATOM     15  C   UNL     1      32.917  33.280  14.133  0.00  0.00    +0.000 A 
ATOM     16  C   UNL     1      30.632  32.576  13.780  0.00  0.00    +0.000 A 
ATOM     17  C   UNL     1      31.982  32.263  13.941  0.00  0.00    +0.000 A 
BRANCH  15  18
ATOM     18  O   UNL     1      34.237  32.985  14.289  0.00  0.00    +0.000 OA
ATOM     19  H   UNL     1      34.362  32.022  14.282  0.00  0.00    +0.000 HD
ENDBRANCH  15  18
BRANCH  17  20
ATOM     20  O   UNL     1      32.375  30.958  13.913  0.00  0.00    +0.000 OA
ATOM     21  H   UNL     1      33.331  30.901  14.063  0.00  0.00    +0.000 HD
ENDBRANCH  17  20
ENDBRANCH   5  12
BRANCH   6  22
ATOM     22  O   UNL     1      32.106  36.968  12.190  0.00  0.00    +0.000 OA
ATOM     23  H   UNL     1      32.299  37.768  11.675  0.00  0.00    +0.000 HD
ENDBRANCH   6  22
BRANCH   8  24
ATOM     24  O   UNL     1      29.518  41.248  13.729  0.00  0.00    +0.000 OA
ATOM     25  H   UNL     1      29.534  40.999  12.793  0.00  0.00    +0.000 HD
ENDBRANCH   8  24
BRANCH  10  26
ATOM     26  O   UNL     1      26.873  39.570  17.297  0.00  0.00    +0.000 OA
ATOM     27  H   UNL     1      27.333  39.705  18.144  0.00  0.00    +0.000 HD
ENDBRANCH  10  26
TORSDOF 6
ENDMDL
