MODEL        6
REMARK  Name = 5281426
REMARK  1 active torsions:
REMARK  status: ('A' for Active; 'I' for Inactive)
REMARK    1  A    between atoms: O_2  and  C_9
REMARK                            x       y       z     vdW  Elec       q    Type
REMARK                         _______ _______ _______ _____ _____    ______ ____
ROOT
ATOM      1  O   UNL     1      13.248  -0.841  17.879  0.00  0.00    +0.000 OA
ATOM      2  O   UNL     1      14.124  -2.871  18.479  0.00  0.00    +0.000 OA
ATOM      3  C   UNL     1      11.152  -0.777  16.642  0.00  0.00    +0.000 A 
ATOM      4  C   UNL     1      12.220  -0.115  17.242  0.00  0.00    +0.000 A 
ATOM      5  C   UNL     1      10.153  -0.022  16.022  0.00  0.00    +0.000 A 
ATOM      6  C   UNL     1      12.317   1.275  17.239  0.00  0.00    +0.000 A 
ATOM      7  C   UNL     1      11.115  -2.228  16.683  0.00  0.00    +0.000 A 
ATOM      8  C   UNL     1      11.317   2.019  16.619  0.00  0.00    +0.000 A 
ATOM      9  C   UNL     1      10.237   1.373  16.012  0.00  0.00    +0.000 A 
ATOM     10  C   UNL     1      12.092  -2.909  17.287  0.00  0.00    +0.000 A 
ATOM     11  C   UNL     1      13.233  -2.232  17.930  0.00  0.00    +0.000 A 
ENDROOT
BRANCH   8  12
ATOM     12  O   UNL     1      11.390   3.379  16.603  0.00  0.00    +0.000 OA
ATOM     13  H   UNL     1      11.367   3.707  17.518  0.00  0.00    +0.000 HD
ENDBRANCH   8  12
TORSDOF 1
ENDMDL
