MODEL        6
REMARK  Name = 5281426
REMARK  1 active torsions:
REMARK  status: ('A' for Active; 'I' for Inactive)
REMARK    1  A    between atoms: O_2  and  C_9
REMARK                            x       y       z     vdW  Elec       q    Type
REMARK                         _______ _______ _______ _____ _____    ______ ____
ROOT
ATOM      1  O   UNL     1      60.876  31.964  75.424  0.00  0.00    +0.000 OA
ATOM      2  O   UNL     1      61.409  32.853  73.381  0.00  0.00    +0.000 OA
ATOM      3  C   UNL     1      58.710  32.477  76.409  0.00  0.00    +0.000 A 
ATOM      4  C   UNL     1      59.944  31.834  76.474  0.00  0.00    +0.000 A 
ATOM      5  C   UNL     1      57.813  32.323  77.468  0.00  0.00    +0.000 A 
ATOM      6  C   UNL     1      60.303  31.044  77.564  0.00  0.00    +0.000 A 
ATOM      7  C   UNL     1      58.401  33.285  75.242  0.00  0.00    +0.000 A 
ATOM      8  C   UNL     1      59.402  30.896  78.616  0.00  0.00    +0.000 A 
ATOM      9  C   UNL     1      58.160  31.534  78.569  0.00  0.00    +0.000 A 
ATOM     10  C   UNL     1      59.291  33.404  74.252  0.00  0.00    +0.000 A 
ATOM     11  C   UNL     1      60.602  32.732  74.297  0.00  0.00    +0.000 A 
ENDROOT
BRANCH   8  12
ATOM     12  O   UNL     1      59.731  30.130  79.692  0.00  0.00    +0.000 OA
ATOM     13  H   UNL     1      59.276  30.479  80.478  0.00  0.00    +0.000 HD
ENDBRANCH   8  12
TORSDOF 1
ENDMDL
