MODEL        6
REMARK  Name = 5281426
REMARK  1 active torsions:
REMARK  status: ('A' for Active; 'I' for Inactive)
REMARK    1  A    between atoms: O_2  and  C_9
REMARK                            x       y       z     vdW  Elec       q    Type
REMARK                         _______ _______ _______ _____ _____    ______ ____
ROOT
ATOM      1  O   UNL     1       8.708   9.411  95.604  0.00  0.00    +0.000 OA
ATOM      2  O   UNL     1       6.482   9.743  96.027  0.00  0.00    +0.000 OA
ATOM      3  C   UNL     1       9.362   7.765  93.934  0.00  0.00    +0.000 A 
ATOM      4  C   UNL     1       9.707   8.727  94.881  0.00  0.00    +0.000 A 
ATOM      5  C   UNL     1      10.380   7.109  93.238  0.00  0.00    +0.000 A 
ATOM      6  C   UNL     1      11.036   9.048  95.150  0.00  0.00    +0.000 A 
ATOM      7  C   UNL     1       7.956   7.480  93.705  0.00  0.00    +0.000 A 
ATOM      8  C   UNL     1      12.044   8.389  94.450  0.00  0.00    +0.000 A 
ATOM      9  C   UNL     1      11.717   7.422  93.497  0.00  0.00    +0.000 A 
ATOM     10  C   UNL     1       7.017   8.132  94.394  0.00  0.00    +0.000 A 
ATOM     11  C   UNL     1       7.356   9.154  95.401  0.00  0.00    +0.000 A 
ENDROOT
BRANCH   8  12
ATOM     12  O   UNL     1      13.349   8.686  94.696  0.00  0.00    +0.000 OA
ATOM     13  H   UNL     1      13.770   7.923  95.129  0.00  0.00    +0.000 HD
ENDBRANCH   8  12
TORSDOF 1
ENDMDL
