MODEL        6
REMARK  Name = 5281426
REMARK  1 active torsions:
REMARK  status: ('A' for Active; 'I' for Inactive)
REMARK    1  A    between atoms: O_2  and  C_9
REMARK                            x       y       z     vdW  Elec       q    Type
REMARK                         _______ _______ _______ _____ _____    ______ ____
ROOT
ATOM      1  O   UNL     1      28.889  81.586  27.225  0.00  0.00    +0.000 OA
ATOM      2  O   UNL     1      29.868  80.168  28.735  0.00  0.00    +0.000 OA
ATOM      3  C   UNL     1      29.694  83.877  27.061  0.00  0.00    +0.000 A 
ATOM      4  C   UNL     1      28.826  82.869  26.645  0.00  0.00    +0.000 A 
ATOM      5  C   UNL     1      29.601  85.136  26.462  0.00  0.00    +0.000 A 
ATOM      6  C   UNL     1      27.874  83.085  25.651  0.00  0.00    +0.000 A 
ATOM      7  C   UNL     1      30.663  83.583  28.102  0.00  0.00    +0.000 A 
ATOM      8  C   UNL     1      27.789  84.343  25.060  0.00  0.00    +0.000 A 
ATOM      9  C   UNL     1      28.650  85.366  25.463  0.00  0.00    +0.000 A 
ATOM     10  C   UNL     1      30.715  82.364  28.647  0.00  0.00    +0.000 A 
ATOM     11  C   UNL     1      29.809  81.281  28.224  0.00  0.00    +0.000 A 
ENDROOT
BRANCH   8  12
ATOM     12  O   UNL     1      26.865  84.577  24.088  0.00  0.00    +0.000 OA
ATOM     13  H   UNL     1      26.845  83.816  23.482  0.00  0.00    +0.000 HD
ENDBRANCH   8  12
TORSDOF 1
ENDMDL
