MODEL        6
REMARK  Name = 5281426
REMARK  1 active torsions:
REMARK  status: ('A' for Active; 'I' for Inactive)
REMARK    1  A    between atoms: O_2  and  C_9
REMARK                            x       y       z     vdW  Elec       q    Type
REMARK                         _______ _______ _______ _____ _____    ______ ____
ROOT
ATOM      1  O   UNL     1      20.463  -0.248   5.518  0.00  0.00    +0.000 OA
ATOM      2  O   UNL     1      21.148   0.847   3.626  0.00  0.00    +0.000 OA
ATOM      3  C   UNL     1      21.901  -1.961   6.479  0.00  0.00    +0.000 A 
ATOM      4  C   UNL     1      20.721  -1.221   6.505  0.00  0.00    +0.000 A 
ATOM      5  C   UNL     1      22.121  -2.914   7.476  0.00  0.00    +0.000 A 
ATOM      6  C   UNL     1      19.760  -1.407   7.497  0.00  0.00    +0.000 A 
ATOM      7  C   UNL     1      22.860  -1.714   5.416  0.00  0.00    +0.000 A 
ATOM      8  C   UNL     1      19.988  -2.361   8.486  0.00  0.00    +0.000 A 
ATOM      9  C   UNL     1      21.166  -3.113   8.476  0.00  0.00    +0.000 A 
ATOM     10  C   UNL     1      22.606  -0.791   4.484  0.00  0.00    +0.000 A 
ATOM     11  C   UNL     1      21.366   0.005   4.491  0.00  0.00    +0.000 A 
ENDROOT
BRANCH   8  12
ATOM     12  O   UNL     1      19.063  -2.561   9.465  0.00  0.00    +0.000 OA
ATOM     13  H   UNL     1      18.481  -1.784   9.512  0.00  0.00    +0.000 HD
ENDBRANCH   8  12
TORSDOF 1
ENDMDL
