MODEL        6
REMARK  Name = 5281426
REMARK  1 active torsions:
REMARK  status: ('A' for Active; 'I' for Inactive)
REMARK    1  A    between atoms: O_2  and  C_9
REMARK                            x       y       z     vdW  Elec       q    Type
REMARK                         _______ _______ _______ _____ _____    ______ ____
ROOT
ATOM      1  O   UNL     1      28.550  38.276  17.490  0.00  0.00    +0.000 OA
ATOM      2  O   UNL     1      26.579  38.821  18.524  0.00  0.00    +0.000 OA
ATOM      3  C   UNL     1      28.648  38.274  15.058  0.00  0.00    +0.000 A 
ATOM      4  C   UNL     1      29.267  38.086  16.291  0.00  0.00    +0.000 A 
ATOM      5  C   UNL     1      29.393  38.076  13.893  0.00  0.00    +0.000 A 
ATOM      6  C   UNL     1      30.604  37.706  16.391  0.00  0.00    +0.000 A 
ATOM      7  C   UNL     1      27.251  38.670  15.028  0.00  0.00    +0.000 A 
ATOM      8  C   UNL     1      31.338  37.511  15.224  0.00  0.00    +0.000 A 
ATOM      9  C   UNL     1      30.735  37.696  13.977  0.00  0.00    +0.000 A 
ATOM     10  C   UNL     1      26.578  38.848  16.168  0.00  0.00    +0.000 A 
ATOM     11  C   UNL     1      27.211  38.655  17.486  0.00  0.00    +0.000 A 
ENDROOT
BRANCH   8  12
ATOM     12  O   UNL     1      32.646  37.140  15.296  0.00  0.00    +0.000 OA
ATOM     13  H   UNL     1      32.954  37.248  16.212  0.00  0.00    +0.000 HD
ENDBRANCH   8  12
TORSDOF 1
ENDMDL
